                                  MODFLOW-2005     
      U.S. GEOLOGICAL SURVEY MODULAR FINITE-DIFFERENCE GROUND-WATER FLOW MODEL
                            VERSION 1.12.00 2/3/2017

 LIST FILE: example_model.list
                         UNIT    2

 OPENING example_model.dis
 FILE TYPE:DIS   UNIT   11   STATUS:OLD    
 FORMAT:FORMATTED              ACCESS:SEQUENTIAL          

 OPENING example_model.bas
 FILE TYPE:BAS6   UNIT   13   STATUS:OLD    
 FORMAT:FORMATTED              ACCESS:SEQUENTIAL          

 OPENING example_model.lpf
 FILE TYPE:LPF   UNIT   15   STATUS:OLD    
 FORMAT:FORMATTED              ACCESS:SEQUENTIAL          

 OPENING example_model.pcg
 FILE TYPE:PCG   UNIT   27   STATUS:OLD    
 FORMAT:FORMATTED              ACCESS:SEQUENTIAL          

 OPENING example_model.oc
 FILE TYPE:OC   UNIT   14   STATUS:OLD    
 FORMAT:FORMATTED              ACCESS:SEQUENTIAL          

 OPENING example_model.wel
 FILE TYPE:WEL   UNIT   20   STATUS:OLD    
 FORMAT:FORMATTED              ACCESS:SEQUENTIAL          

 OPENING example_model.cbc
 FILE TYPE:DATA(BINARY)   UNIT   53   STATUS:REPLACE
 FORMAT:UNFORMATTED            ACCESS:STREAM              

 OPENING example_model.hds
 FILE TYPE:DATA(BINARY)   UNIT   51   STATUS:REPLACE
 FORMAT:UNFORMATTED            ACCESS:STREAM              

 BAS -- BASIC PACKAGE, VERSION 7, 5/2/2005 INPUT READ FROM UNIT   13
 
 MODFLOW was compiled using mixed precision
 Precision of REAL variables:           6
 Precision of DOUBLE PRECISION variables:          15

 DISCRETIZATION INPUT DATA READ FROM UNIT   11
 # DIS package for SEAWAT generated by Flopy 3.3.6
   50 LAYERS       190 ROWS       220 COLUMNS
    5 STRESS PERIOD(S) IN SIMULATION
 MODEL TIME UNIT IS DAYS
 MODEL LENGTH UNIT IS METERS
  Confining bed flag for each layer:
   0   0   0   0   0   0   0   0   0   0   0   0   0   0   0   0   0   0   0   0
   0   0   0   0   0   0   0   0   0   0   0   0   0   0   0   0   0   0   0   0
   0   0   0   0   0   0   0   0   0   0

                     DELR =   12.0000    

                     DELC =   12.0000    

 TOP ELEVATION OF LAYER 1 =   190.000    

   MODEL LAYER BOTTOM EL. =   189.500     FOR LAYER   1

   MODEL LAYER BOTTOM EL. =   189.000     FOR LAYER   2

   MODEL LAYER BOTTOM EL. =   188.500     FOR LAYER   3

   MODEL LAYER BOTTOM EL. =   188.000     FOR LAYER   4

   MODEL LAYER BOTTOM EL. =   187.500     FOR LAYER   5

   MODEL LAYER BOTTOM EL. =   187.000     FOR LAYER   6

   MODEL LAYER BOTTOM EL. =   186.500     FOR LAYER   7

   MODEL LAYER BOTTOM EL. =   186.000     FOR LAYER   8

   MODEL LAYER BOTTOM EL. =   185.500     FOR LAYER   9

   MODEL LAYER BOTTOM EL. =   185.000     FOR LAYER  10

   MODEL LAYER BOTTOM EL. =   184.500     FOR LAYER  11

   MODEL LAYER BOTTOM EL. =   184.000     FOR LAYER  12

   MODEL LAYER BOTTOM EL. =   183.500     FOR LAYER  13

   MODEL LAYER BOTTOM EL. =   183.000     FOR LAYER  14

   MODEL LAYER BOTTOM EL. =   182.500     FOR LAYER  15

   MODEL LAYER BOTTOM EL. =   182.000     FOR LAYER  16

   MODEL LAYER BOTTOM EL. =   181.500     FOR LAYER  17

   MODEL LAYER BOTTOM EL. =   181.000     FOR LAYER  18

   MODEL LAYER BOTTOM EL. =   180.500     FOR LAYER  19

   MODEL LAYER BOTTOM EL. =   180.000     FOR LAYER  20

   MODEL LAYER BOTTOM EL. =   179.500     FOR LAYER  21

   MODEL LAYER BOTTOM EL. =   179.000     FOR LAYER  22

   MODEL LAYER BOTTOM EL. =   178.500     FOR LAYER  23

   MODEL LAYER BOTTOM EL. =   178.000     FOR LAYER  24

   MODEL LAYER BOTTOM EL. =   177.500     FOR LAYER  25

   MODEL LAYER BOTTOM EL. =   177.000     FOR LAYER  26

   MODEL LAYER BOTTOM EL. =   176.500     FOR LAYER  27

   MODEL LAYER BOTTOM EL. =   176.000     FOR LAYER  28

   MODEL LAYER BOTTOM EL. =   175.500     FOR LAYER  29

   MODEL LAYER BOTTOM EL. =   175.000     FOR LAYER  30

   MODEL LAYER BOTTOM EL. =   174.500     FOR LAYER  31

   MODEL LAYER BOTTOM EL. =   174.000     FOR LAYER  32

   MODEL LAYER BOTTOM EL. =   173.500     FOR LAYER  33

   MODEL LAYER BOTTOM EL. =   173.000     FOR LAYER  34

   MODEL LAYER BOTTOM EL. =   172.500     FOR LAYER  35

   MODEL LAYER BOTTOM EL. =   172.000     FOR LAYER  36

   MODEL LAYER BOTTOM EL. =   171.500     FOR LAYER  37

   MODEL LAYER BOTTOM EL. =   171.000     FOR LAYER  38

   MODEL LAYER BOTTOM EL. =   170.500     FOR LAYER  39

   MODEL LAYER BOTTOM EL. =   170.000     FOR LAYER  40

   MODEL LAYER BOTTOM EL. =   169.500     FOR LAYER  41

   MODEL LAYER BOTTOM EL. =   169.000     FOR LAYER  42

   MODEL LAYER BOTTOM EL. =   168.500     FOR LAYER  43

   MODEL LAYER BOTTOM EL. =   168.000     FOR LAYER  44

   MODEL LAYER BOTTOM EL. =   167.500     FOR LAYER  45

   MODEL LAYER BOTTOM EL. =   167.000     FOR LAYER  46

   MODEL LAYER BOTTOM EL. =   166.500     FOR LAYER  47

   MODEL LAYER BOTTOM EL. =   166.000     FOR LAYER  48

   MODEL LAYER BOTTOM EL. =   165.500     FOR LAYER  49

   MODEL LAYER BOTTOM EL. =   165.000     FOR LAYER  50


 STRESS PERIOD     LENGTH       TIME STEPS     MULTIPLIER FOR DELT    SS FLAG
 ----------------------------------------------------------------------------
        1         30.00000          1                    1.000         SS
        2         30.00000          1                    1.000         TR
        3         30.00000          1                    1.000         TR
        4         30.00000          1                    1.000         TR
        5         30.00000          1                    1.000         TR

 COMBINED STEADY-STATE AND TRANSIENT SIMULATION



 
 # BAS6 package for SEAWAT generated by Flopy 3.3.6                              
 THE FREE FORMAT OPTION HAS BEEN SELECTED



                     BOUNDARY ARRAY FOR LAYER   1
 READING ON UNIT   13 WITH FORMAT:            (220I10) 



                     BOUNDARY ARRAY FOR LAYER   2
 READING ON UNIT   13 WITH FORMAT:            (220I10) 



                     BOUNDARY ARRAY FOR LAYER   3
 READING ON UNIT   13 WITH FORMAT:            (220I10) 



                     BOUNDARY ARRAY FOR LAYER   4
 READING ON UNIT   13 WITH FORMAT:            (220I10) 



                     BOUNDARY ARRAY FOR LAYER   5
 READING ON UNIT   13 WITH FORMAT:            (220I10) 



                     BOUNDARY ARRAY FOR LAYER   6
 READING ON UNIT   13 WITH FORMAT:            (220I10) 



                     BOUNDARY ARRAY FOR LAYER   7
 READING ON UNIT   13 WITH FORMAT:            (220I10) 



                     BOUNDARY ARRAY FOR LAYER   8
 READING ON UNIT   13 WITH FORMAT:            (220I10) 



                     BOUNDARY ARRAY FOR LAYER   9
 READING ON UNIT   13 WITH FORMAT:            (220I10) 



                     BOUNDARY ARRAY FOR LAYER  10
 READING ON UNIT   13 WITH FORMAT:            (220I10) 



                     BOUNDARY ARRAY FOR LAYER  11
 READING ON UNIT   13 WITH FORMAT:            (220I10) 



                     BOUNDARY ARRAY FOR LAYER  12
 READING ON UNIT   13 WITH FORMAT:            (220I10) 



                     BOUNDARY ARRAY FOR LAYER  13
 READING ON UNIT   13 WITH FORMAT:            (220I10) 



                     BOUNDARY ARRAY FOR LAYER  14
 READING ON UNIT   13 WITH FORMAT:            (220I10) 



                     BOUNDARY ARRAY FOR LAYER  15
 READING ON UNIT   13 WITH FORMAT:            (220I10) 



                     BOUNDARY ARRAY FOR LAYER  16
 READING ON UNIT   13 WITH FORMAT:            (220I10) 



                     BOUNDARY ARRAY FOR LAYER  17
 READING ON UNIT   13 WITH FORMAT:            (220I10) 



                     BOUNDARY ARRAY FOR LAYER  18
 READING ON UNIT   13 WITH FORMAT:            (220I10) 



                     BOUNDARY ARRAY FOR LAYER  19
 READING ON UNIT   13 WITH FORMAT:            (220I10) 



                     BOUNDARY ARRAY FOR LAYER  20
 READING ON UNIT   13 WITH FORMAT:            (220I10) 



                     BOUNDARY ARRAY FOR LAYER  21
 READING ON UNIT   13 WITH FORMAT:            (220I10) 



                     BOUNDARY ARRAY FOR LAYER  22
 READING ON UNIT   13 WITH FORMAT:            (220I10) 



                     BOUNDARY ARRAY FOR LAYER  23
 READING ON UNIT   13 WITH FORMAT:            (220I10) 



                     BOUNDARY ARRAY FOR LAYER  24
 READING ON UNIT   13 WITH FORMAT:            (220I10) 



                     BOUNDARY ARRAY FOR LAYER  25
 READING ON UNIT   13 WITH FORMAT:            (220I10) 



                     BOUNDARY ARRAY FOR LAYER  26
 READING ON UNIT   13 WITH FORMAT:            (220I10) 



                     BOUNDARY ARRAY FOR LAYER  27
 READING ON UNIT   13 WITH FORMAT:            (220I10) 



                     BOUNDARY ARRAY FOR LAYER  28
 READING ON UNIT   13 WITH FORMAT:            (220I10) 



                     BOUNDARY ARRAY FOR LAYER  29
 READING ON UNIT   13 WITH FORMAT:            (220I10) 



                     BOUNDARY ARRAY FOR LAYER  30
 READING ON UNIT   13 WITH FORMAT:            (220I10) 



                     BOUNDARY ARRAY FOR LAYER  31
 READING ON UNIT   13 WITH FORMAT:            (220I10) 



                     BOUNDARY ARRAY FOR LAYER  32
 READING ON UNIT   13 WITH FORMAT:            (220I10) 



                     BOUNDARY ARRAY FOR LAYER  33
 READING ON UNIT   13 WITH FORMAT:            (220I10) 



                     BOUNDARY ARRAY FOR LAYER  34
 READING ON UNIT   13 WITH FORMAT:            (220I10) 



                     BOUNDARY ARRAY FOR LAYER  35
 READING ON UNIT   13 WITH FORMAT:            (220I10) 



                     BOUNDARY ARRAY FOR LAYER  36
 READING ON UNIT   13 WITH FORMAT:            (220I10) 



                     BOUNDARY ARRAY FOR LAYER  37
 READING ON UNIT   13 WITH FORMAT:            (220I10) 



                     BOUNDARY ARRAY FOR LAYER  38
 READING ON UNIT   13 WITH FORMAT:            (220I10) 



                     BOUNDARY ARRAY FOR LAYER  39
 READING ON UNIT   13 WITH FORMAT:            (220I10) 



                     BOUNDARY ARRAY FOR LAYER  40
 READING ON UNIT   13 WITH FORMAT:            (220I10) 



                     BOUNDARY ARRAY FOR LAYER  41
 READING ON UNIT   13 WITH FORMAT:            (220I10) 



                     BOUNDARY ARRAY FOR LAYER  42
 READING ON UNIT   13 WITH FORMAT:            (220I10) 



                     BOUNDARY ARRAY FOR LAYER  43
 READING ON UNIT   13 WITH FORMAT:            (220I10) 



                     BOUNDARY ARRAY FOR LAYER  44
 READING ON UNIT   13 WITH FORMAT:            (220I10) 



                     BOUNDARY ARRAY FOR LAYER  45
 READING ON UNIT   13 WITH FORMAT:            (220I10) 



                     BOUNDARY ARRAY FOR LAYER  46
 READING ON UNIT   13 WITH FORMAT:            (220I10) 



                     BOUNDARY ARRAY FOR LAYER  47
 READING ON UNIT   13 WITH FORMAT:            (220I10) 



                     BOUNDARY ARRAY FOR LAYER  48
 READING ON UNIT   13 WITH FORMAT:            (220I10) 



                     BOUNDARY ARRAY FOR LAYER  49
 READING ON UNIT   13 WITH FORMAT:            (220I10) 



                     BOUNDARY ARRAY FOR LAYER  50
 READING ON UNIT   13 WITH FORMAT:            (220I10) 

 AQUIFER HEAD WILL BE SET TO  -999.99     AT ALL NO-FLOW NODES (IBOUND=0).



                       INITIAL HEAD FOR LAYER   1
 READING ON UNIT   13 WITH FORMAT:          (220E15.6) 



                       INITIAL HEAD FOR LAYER   2
 READING ON UNIT   13 WITH FORMAT:          (220E15.6) 



                       INITIAL HEAD FOR LAYER   3
 READING ON UNIT   13 WITH FORMAT:          (220E15.6) 



                       INITIAL HEAD FOR LAYER   4
 READING ON UNIT   13 WITH FORMAT:          (220E15.6) 



                       INITIAL HEAD FOR LAYER   5
 READING ON UNIT   13 WITH FORMAT:          (220E15.6) 



                       INITIAL HEAD FOR LAYER   6
 READING ON UNIT   13 WITH FORMAT:          (220E15.6) 



                       INITIAL HEAD FOR LAYER   7
 READING ON UNIT   13 WITH FORMAT:          (220E15.6) 



                       INITIAL HEAD FOR LAYER   8
 READING ON UNIT   13 WITH FORMAT:          (220E15.6) 



                       INITIAL HEAD FOR LAYER   9
 READING ON UNIT   13 WITH FORMAT:          (220E15.6) 



                       INITIAL HEAD FOR LAYER  10
 READING ON UNIT   13 WITH FORMAT:          (220E15.6) 



                       INITIAL HEAD FOR LAYER  11
 READING ON UNIT   13 WITH FORMAT:          (220E15.6) 



                       INITIAL HEAD FOR LAYER  12
 READING ON UNIT   13 WITH FORMAT:          (220E15.6) 



                       INITIAL HEAD FOR LAYER  13
 READING ON UNIT   13 WITH FORMAT:          (220E15.6) 



                       INITIAL HEAD FOR LAYER  14
 READING ON UNIT   13 WITH FORMAT:          (220E15.6) 



                       INITIAL HEAD FOR LAYER  15
 READING ON UNIT   13 WITH FORMAT:          (220E15.6) 



                       INITIAL HEAD FOR LAYER  16
 READING ON UNIT   13 WITH FORMAT:          (220E15.6) 



                       INITIAL HEAD FOR LAYER  17
 READING ON UNIT   13 WITH FORMAT:          (220E15.6) 



                       INITIAL HEAD FOR LAYER  18
 READING ON UNIT   13 WITH FORMAT:          (220E15.6) 



                       INITIAL HEAD FOR LAYER  19
 READING ON UNIT   13 WITH FORMAT:          (220E15.6) 



                       INITIAL HEAD FOR LAYER  20
 READING ON UNIT   13 WITH FORMAT:          (220E15.6) 



                       INITIAL HEAD FOR LAYER  21
 READING ON UNIT   13 WITH FORMAT:          (220E15.6) 



                       INITIAL HEAD FOR LAYER  22
 READING ON UNIT   13 WITH FORMAT:          (220E15.6) 



                       INITIAL HEAD FOR LAYER  23
 READING ON UNIT   13 WITH FORMAT:          (220E15.6) 



                       INITIAL HEAD FOR LAYER  24
 READING ON UNIT   13 WITH FORMAT:          (220E15.6) 



                       INITIAL HEAD FOR LAYER  25
 READING ON UNIT   13 WITH FORMAT:          (220E15.6) 



                       INITIAL HEAD FOR LAYER  26
 READING ON UNIT   13 WITH FORMAT:          (220E15.6) 



                       INITIAL HEAD FOR LAYER  27
 READING ON UNIT   13 WITH FORMAT:          (220E15.6) 



                       INITIAL HEAD FOR LAYER  28
 READING ON UNIT   13 WITH FORMAT:          (220E15.6) 



                       INITIAL HEAD FOR LAYER  29
 READING ON UNIT   13 WITH FORMAT:          (220E15.6) 



                       INITIAL HEAD FOR LAYER  30
 READING ON UNIT   13 WITH FORMAT:          (220E15.6) 



                       INITIAL HEAD FOR LAYER  31
 READING ON UNIT   13 WITH FORMAT:          (220E15.6) 



                       INITIAL HEAD FOR LAYER  32
 READING ON UNIT   13 WITH FORMAT:          (220E15.6) 



                       INITIAL HEAD FOR LAYER  33
 READING ON UNIT   13 WITH FORMAT:          (220E15.6) 



                       INITIAL HEAD FOR LAYER  34
 READING ON UNIT   13 WITH FORMAT:          (220E15.6) 



                       INITIAL HEAD FOR LAYER  35
 READING ON UNIT   13 WITH FORMAT:          (220E15.6) 



                       INITIAL HEAD FOR LAYER  36
 READING ON UNIT   13 WITH FORMAT:          (220E15.6) 



                       INITIAL HEAD FOR LAYER  37
 READING ON UNIT   13 WITH FORMAT:          (220E15.6) 



                       INITIAL HEAD FOR LAYER  38
 READING ON UNIT   13 WITH FORMAT:          (220E15.6) 



                       INITIAL HEAD FOR LAYER  39
 READING ON UNIT   13 WITH FORMAT:          (220E15.6) 



                       INITIAL HEAD FOR LAYER  40
 READING ON UNIT   13 WITH FORMAT:          (220E15.6) 



                       INITIAL HEAD FOR LAYER  41
 READING ON UNIT   13 WITH FORMAT:          (220E15.6) 



                       INITIAL HEAD FOR LAYER  42
 READING ON UNIT   13 WITH FORMAT:          (220E15.6) 



                       INITIAL HEAD FOR LAYER  43
 READING ON UNIT   13 WITH FORMAT:          (220E15.6) 



                       INITIAL HEAD FOR LAYER  44
 READING ON UNIT   13 WITH FORMAT:          (220E15.6) 



                       INITIAL HEAD FOR LAYER  45
 READING ON UNIT   13 WITH FORMAT:          (220E15.6) 



                       INITIAL HEAD FOR LAYER  46
 READING ON UNIT   13 WITH FORMAT:          (220E15.6) 



                       INITIAL HEAD FOR LAYER  47
 READING ON UNIT   13 WITH FORMAT:          (220E15.6) 



                       INITIAL HEAD FOR LAYER  48
 READING ON UNIT   13 WITH FORMAT:          (220E15.6) 



                       INITIAL HEAD FOR LAYER  49
 READING ON UNIT   13 WITH FORMAT:          (220E15.6) 



                       INITIAL HEAD FOR LAYER  50
 READING ON UNIT   13 WITH FORMAT:          (220E15.6) 
 # OC package for SEAWAT generated by Flopy 3.3.6

 OUTPUT CONTROL IS SPECIFIED ONLY AT TIME STEPS FOR WHICH OUTPUT IS DESIRED
 COMPACT CELL-BY-CELL BUDGET FILES WILL BE WRITTEN
 AUXILIARY DATA WILL BE SAVED IN CELL-BY-CELL BUDGET FILES
 HEAD PRINT FORMAT CODE IS   0    DRAWDOWN PRINT FORMAT CODE IS   0
 HEADS WILL BE SAVED ON UNIT   51    DRAWDOWNS WILL BE SAVED ON UNIT    0

 LPF -- LAYER-PROPERTY FLOW PACKAGE, VERSION 7, 5/2/2005
         INPUT READ FROM UNIT   15
 # LPF package for SEAWAT generated by Flopy 3.3.6
 CELL-BY-CELL FLOWS WILL BE SAVED ON UNIT   53
 HEAD AT CELLS THAT CONVERT TO DRY= -1.00000E+30
 No named parameters

   LAYER FLAGS:
 LAYER       LAYTYP        LAYAVG         CHANI        LAYVKA        LAYWET
 ---------------------------------------------------------------------------
    1             1             0     1.000E+00             0             0
    2             1             0     1.000E+00             0             0
    3             1             0     1.000E+00             0             0
    4             1             0     1.000E+00             0             0
    5             1             0     1.000E+00             0             0
    6             1             0     1.000E+00             0             0
    7             1             0     1.000E+00             0             0
    8             1             0     1.000E+00             0             0
    9             1             0     1.000E+00             0             0
   10             1             0     1.000E+00             0             0
   11             1             0     1.000E+00             0             0
   12             1             0     1.000E+00             0             0
   13             1             0     1.000E+00             0             0
   14             1             0     1.000E+00             0             0
   15             1             0     1.000E+00             0             0
   16             1             0     1.000E+00             0             0
   17             1             0     1.000E+00             0             0
   18             1             0     1.000E+00             0             0
   19             1             0     1.000E+00             0             0
   20             1             0     1.000E+00             0             0
   21             1             0     1.000E+00             0             0
   22             1             0     1.000E+00             0             0
   23             1             0     1.000E+00             0             0
   24             1             0     1.000E+00             0             0
   25             1             0     1.000E+00             0             0
   26             1             0     1.000E+00             0             0
   27             1             0     1.000E+00             0             0
   28             1             0     1.000E+00             0             0
   29             1             0     1.000E+00             0             0
   30             1             0     1.000E+00             0             0
   31             1             0     1.000E+00             0             0
   32             1             0     1.000E+00             0             0
   33             1             0     1.000E+00             0             0
   34             1             0     1.000E+00             0             0
   35             1             0     1.000E+00             0             0
   36             1             0     1.000E+00             0             0
   37             1             0     1.000E+00             0             0
   38             1             0     1.000E+00             0             0
   39             1             0     1.000E+00             0             0
   40             1             0     1.000E+00             0             0
   41             1             0     1.000E+00             0             0
   42             1             0     1.000E+00             0             0
   43             1             0     1.000E+00             0             0
   44             1             0     1.000E+00             0             0
   45             1             0     1.000E+00             0             0
   46             1             0     1.000E+00             0             0
   47             1             0     1.000E+00             0             0
   48             1             0     1.000E+00             0             0
   49             1             0     1.000E+00             0             0
   50             1             0     1.000E+00             0             0

   INTERPRETATION OF LAYER FLAGS:
                        INTERBLOCK     HORIZONTAL    DATA IN
         LAYER TYPE   TRANSMISSIVITY   ANISOTROPY   ARRAY VKA   WETTABILITY
 LAYER      (LAYTYP)      (LAYAVG)       (CHANI)      (LAYVKA)      (LAYWET)
 ---------------------------------------------------------------------------
    1   CONVERTIBLE      HARMONIC     1.000E+00    VERTICAL K  NON-WETTABLE
    2   CONVERTIBLE      HARMONIC     1.000E+00    VERTICAL K  NON-WETTABLE
    3   CONVERTIBLE      HARMONIC     1.000E+00    VERTICAL K  NON-WETTABLE
    4   CONVERTIBLE      HARMONIC     1.000E+00    VERTICAL K  NON-WETTABLE
    5   CONVERTIBLE      HARMONIC     1.000E+00    VERTICAL K  NON-WETTABLE
    6   CONVERTIBLE      HARMONIC     1.000E+00    VERTICAL K  NON-WETTABLE
    7   CONVERTIBLE      HARMONIC     1.000E+00    VERTICAL K  NON-WETTABLE
    8   CONVERTIBLE      HARMONIC     1.000E+00    VERTICAL K  NON-WETTABLE
    9   CONVERTIBLE      HARMONIC     1.000E+00    VERTICAL K  NON-WETTABLE
   10   CONVERTIBLE      HARMONIC     1.000E+00    VERTICAL K  NON-WETTABLE
   11   CONVERTIBLE      HARMONIC     1.000E+00    VERTICAL K  NON-WETTABLE
   12   CONVERTIBLE      HARMONIC     1.000E+00    VERTICAL K  NON-WETTABLE
   13   CONVERTIBLE      HARMONIC     1.000E+00    VERTICAL K  NON-WETTABLE
   14   CONVERTIBLE      HARMONIC     1.000E+00    VERTICAL K  NON-WETTABLE
   15   CONVERTIBLE      HARMONIC     1.000E+00    VERTICAL K  NON-WETTABLE
   16   CONVERTIBLE      HARMONIC     1.000E+00    VERTICAL K  NON-WETTABLE
   17   CONVERTIBLE      HARMONIC     1.000E+00    VERTICAL K  NON-WETTABLE
   18   CONVERTIBLE      HARMONIC     1.000E+00    VERTICAL K  NON-WETTABLE
   19   CONVERTIBLE      HARMONIC     1.000E+00    VERTICAL K  NON-WETTABLE
   20   CONVERTIBLE      HARMONIC     1.000E+00    VERTICAL K  NON-WETTABLE
   21   CONVERTIBLE      HARMONIC     1.000E+00    VERTICAL K  NON-WETTABLE
   22   CONVERTIBLE      HARMONIC     1.000E+00    VERTICAL K  NON-WETTABLE
   23   CONVERTIBLE      HARMONIC     1.000E+00    VERTICAL K  NON-WETTABLE
   24   CONVERTIBLE      HARMONIC     1.000E+00    VERTICAL K  NON-WETTABLE
   25   CONVERTIBLE      HARMONIC     1.000E+00    VERTICAL K  NON-WETTABLE
   26   CONVERTIBLE      HARMONIC     1.000E+00    VERTICAL K  NON-WETTABLE
   27   CONVERTIBLE      HARMONIC     1.000E+00    VERTICAL K  NON-WETTABLE
   28   CONVERTIBLE      HARMONIC     1.000E+00    VERTICAL K  NON-WETTABLE
   29   CONVERTIBLE      HARMONIC     1.000E+00    VERTICAL K  NON-WETTABLE
   30   CONVERTIBLE      HARMONIC     1.000E+00    VERTICAL K  NON-WETTABLE
   31   CONVERTIBLE      HARMONIC     1.000E+00    VERTICAL K  NON-WETTABLE
   32   CONVERTIBLE      HARMONIC     1.000E+00    VERTICAL K  NON-WETTABLE
   33   CONVERTIBLE      HARMONIC     1.000E+00    VERTICAL K  NON-WETTABLE
   34   CONVERTIBLE      HARMONIC     1.000E+00    VERTICAL K  NON-WETTABLE
   35   CONVERTIBLE      HARMONIC     1.000E+00    VERTICAL K  NON-WETTABLE
   36   CONVERTIBLE      HARMONIC     1.000E+00    VERTICAL K  NON-WETTABLE
   37   CONVERTIBLE      HARMONIC     1.000E+00    VERTICAL K  NON-WETTABLE
   38   CONVERTIBLE      HARMONIC     1.000E+00    VERTICAL K  NON-WETTABLE
   39   CONVERTIBLE      HARMONIC     1.000E+00    VERTICAL K  NON-WETTABLE
   40   CONVERTIBLE      HARMONIC     1.000E+00    VERTICAL K  NON-WETTABLE
   41   CONVERTIBLE      HARMONIC     1.000E+00    VERTICAL K  NON-WETTABLE
   42   CONVERTIBLE      HARMONIC     1.000E+00    VERTICAL K  NON-WETTABLE
   43   CONVERTIBLE      HARMONIC     1.000E+00    VERTICAL K  NON-WETTABLE
   44   CONVERTIBLE      HARMONIC     1.000E+00    VERTICAL K  NON-WETTABLE
   45   CONVERTIBLE      HARMONIC     1.000E+00    VERTICAL K  NON-WETTABLE
   46   CONVERTIBLE      HARMONIC     1.000E+00    VERTICAL K  NON-WETTABLE
   47   CONVERTIBLE      HARMONIC     1.000E+00    VERTICAL K  NON-WETTABLE
   48   CONVERTIBLE      HARMONIC     1.000E+00    VERTICAL K  NON-WETTABLE
   49   CONVERTIBLE      HARMONIC     1.000E+00    VERTICAL K  NON-WETTABLE
   50   CONVERTIBLE      HARMONIC     1.000E+00    VERTICAL K  NON-WETTABLE

 WETTING CAPABILITY IS NOT ACTIVE IN ANY LAYER

    HYD. COND. ALONG ROWS =   6.90000     FOR LAYER   1

      VERTICAL HYD. COND. =  0.100000     FOR LAYER   1

         SPECIFIC STORAGE =  2.000000E-04 FOR LAYER   1

           SPECIFIC YIELD =  0.330000     FOR LAYER   1

    HYD. COND. ALONG ROWS =   6.90000     FOR LAYER   2

      VERTICAL HYD. COND. =  0.100000     FOR LAYER   2

         SPECIFIC STORAGE =  2.000000E-04 FOR LAYER   2

           SPECIFIC YIELD =  0.330000     FOR LAYER   2

    HYD. COND. ALONG ROWS =   6.90000     FOR LAYER   3

      VERTICAL HYD. COND. =  0.100000     FOR LAYER   3

         SPECIFIC STORAGE =  2.000000E-04 FOR LAYER   3

           SPECIFIC YIELD =  0.330000     FOR LAYER   3

    HYD. COND. ALONG ROWS =   6.90000     FOR LAYER   4

      VERTICAL HYD. COND. =  0.100000     FOR LAYER   4

         SPECIFIC STORAGE =  2.000000E-04 FOR LAYER   4

           SPECIFIC YIELD =  0.330000     FOR LAYER   4

    HYD. COND. ALONG ROWS =   6.90000     FOR LAYER   5

      VERTICAL HYD. COND. =  0.100000     FOR LAYER   5

         SPECIFIC STORAGE =  2.000000E-04 FOR LAYER   5

           SPECIFIC YIELD =  0.330000     FOR LAYER   5

    HYD. COND. ALONG ROWS =   6.90000     FOR LAYER   6

      VERTICAL HYD. COND. =  0.100000     FOR LAYER   6

         SPECIFIC STORAGE =  2.000000E-04 FOR LAYER   6

           SPECIFIC YIELD =  0.330000     FOR LAYER   6

    HYD. COND. ALONG ROWS =   6.90000     FOR LAYER   7

      VERTICAL HYD. COND. =  0.100000     FOR LAYER   7

         SPECIFIC STORAGE =  2.000000E-04 FOR LAYER   7

           SPECIFIC YIELD =  0.330000     FOR LAYER   7

    HYD. COND. ALONG ROWS =   6.90000     FOR LAYER   8

      VERTICAL HYD. COND. =  0.100000     FOR LAYER   8

         SPECIFIC STORAGE =  2.000000E-04 FOR LAYER   8

           SPECIFIC YIELD =  0.330000     FOR LAYER   8

    HYD. COND. ALONG ROWS =   6.90000     FOR LAYER   9

      VERTICAL HYD. COND. =  0.100000     FOR LAYER   9

         SPECIFIC STORAGE =  2.000000E-04 FOR LAYER   9

           SPECIFIC YIELD =  0.330000     FOR LAYER   9

    HYD. COND. ALONG ROWS =   6.90000     FOR LAYER  10

      VERTICAL HYD. COND. =  0.100000     FOR LAYER  10

         SPECIFIC STORAGE =  2.000000E-04 FOR LAYER  10

           SPECIFIC YIELD =  0.330000     FOR LAYER  10

    HYD. COND. ALONG ROWS =   6.90000     FOR LAYER  11

      VERTICAL HYD. COND. =  0.100000     FOR LAYER  11

         SPECIFIC STORAGE =  2.000000E-04 FOR LAYER  11

           SPECIFIC YIELD =  0.330000     FOR LAYER  11

    HYD. COND. ALONG ROWS =   6.90000     FOR LAYER  12

      VERTICAL HYD. COND. =  0.100000     FOR LAYER  12

         SPECIFIC STORAGE =  2.000000E-04 FOR LAYER  12

           SPECIFIC YIELD =  0.330000     FOR LAYER  12

    HYD. COND. ALONG ROWS =   6.90000     FOR LAYER  13

      VERTICAL HYD. COND. =  0.100000     FOR LAYER  13

         SPECIFIC STORAGE =  2.000000E-04 FOR LAYER  13

           SPECIFIC YIELD =  0.330000     FOR LAYER  13

    HYD. COND. ALONG ROWS =   6.90000     FOR LAYER  14

      VERTICAL HYD. COND. =  0.100000     FOR LAYER  14

         SPECIFIC STORAGE =  2.000000E-04 FOR LAYER  14

           SPECIFIC YIELD =  0.330000     FOR LAYER  14

    HYD. COND. ALONG ROWS =   6.90000     FOR LAYER  15

      VERTICAL HYD. COND. =  0.100000     FOR LAYER  15

         SPECIFIC STORAGE =  2.000000E-04 FOR LAYER  15

           SPECIFIC YIELD =  0.330000     FOR LAYER  15

    HYD. COND. ALONG ROWS =   6.90000     FOR LAYER  16

      VERTICAL HYD. COND. =  0.100000     FOR LAYER  16

         SPECIFIC STORAGE =  2.000000E-04 FOR LAYER  16

           SPECIFIC YIELD =  0.330000     FOR LAYER  16

    HYD. COND. ALONG ROWS =   6.90000     FOR LAYER  17

      VERTICAL HYD. COND. =  0.100000     FOR LAYER  17

         SPECIFIC STORAGE =  2.000000E-04 FOR LAYER  17

           SPECIFIC YIELD =  0.330000     FOR LAYER  17

    HYD. COND. ALONG ROWS =   6.90000     FOR LAYER  18

      VERTICAL HYD. COND. =  0.100000     FOR LAYER  18

         SPECIFIC STORAGE =  2.000000E-04 FOR LAYER  18

           SPECIFIC YIELD =  0.330000     FOR LAYER  18

    HYD. COND. ALONG ROWS =   6.90000     FOR LAYER  19

      VERTICAL HYD. COND. =  0.100000     FOR LAYER  19

         SPECIFIC STORAGE =  2.000000E-04 FOR LAYER  19

           SPECIFIC YIELD =  0.330000     FOR LAYER  19

    HYD. COND. ALONG ROWS =   6.90000     FOR LAYER  20

      VERTICAL HYD. COND. =  0.100000     FOR LAYER  20

         SPECIFIC STORAGE =  2.000000E-04 FOR LAYER  20

           SPECIFIC YIELD =  0.330000     FOR LAYER  20

    HYD. COND. ALONG ROWS =   6.90000     FOR LAYER  21

      VERTICAL HYD. COND. =  0.100000     FOR LAYER  21

         SPECIFIC STORAGE =  2.000000E-04 FOR LAYER  21

           SPECIFIC YIELD =  0.330000     FOR LAYER  21

    HYD. COND. ALONG ROWS =   6.90000     FOR LAYER  22

      VERTICAL HYD. COND. =  0.100000     FOR LAYER  22

         SPECIFIC STORAGE =  2.000000E-04 FOR LAYER  22

           SPECIFIC YIELD =  0.330000     FOR LAYER  22

    HYD. COND. ALONG ROWS =   6.90000     FOR LAYER  23

      VERTICAL HYD. COND. =  0.100000     FOR LAYER  23

         SPECIFIC STORAGE =  2.000000E-04 FOR LAYER  23

           SPECIFIC YIELD =  0.330000     FOR LAYER  23

    HYD. COND. ALONG ROWS =   6.90000     FOR LAYER  24

      VERTICAL HYD. COND. =  0.100000     FOR LAYER  24

         SPECIFIC STORAGE =  2.000000E-04 FOR LAYER  24

           SPECIFIC YIELD =  0.330000     FOR LAYER  24

    HYD. COND. ALONG ROWS =   6.90000     FOR LAYER  25

      VERTICAL HYD. COND. =  0.100000     FOR LAYER  25

         SPECIFIC STORAGE =  2.000000E-04 FOR LAYER  25

           SPECIFIC YIELD =  0.330000     FOR LAYER  25

    HYD. COND. ALONG ROWS =   6.90000     FOR LAYER  26

      VERTICAL HYD. COND. =  0.100000     FOR LAYER  26

         SPECIFIC STORAGE =  2.000000E-04 FOR LAYER  26

           SPECIFIC YIELD =  0.330000     FOR LAYER  26

    HYD. COND. ALONG ROWS =   6.90000     FOR LAYER  27

      VERTICAL HYD. COND. =  0.100000     FOR LAYER  27

         SPECIFIC STORAGE =  2.000000E-04 FOR LAYER  27

           SPECIFIC YIELD =  0.330000     FOR LAYER  27

    HYD. COND. ALONG ROWS =   6.90000     FOR LAYER  28

      VERTICAL HYD. COND. =  0.100000     FOR LAYER  28

         SPECIFIC STORAGE =  2.000000E-04 FOR LAYER  28

           SPECIFIC YIELD =  0.330000     FOR LAYER  28

    HYD. COND. ALONG ROWS =   6.90000     FOR LAYER  29

      VERTICAL HYD. COND. =  0.100000     FOR LAYER  29

         SPECIFIC STORAGE =  2.000000E-04 FOR LAYER  29

           SPECIFIC YIELD =  0.330000     FOR LAYER  29

    HYD. COND. ALONG ROWS =   6.90000     FOR LAYER  30

      VERTICAL HYD. COND. =  0.100000     FOR LAYER  30

         SPECIFIC STORAGE =  2.000000E-04 FOR LAYER  30

           SPECIFIC YIELD =  0.330000     FOR LAYER  30

    HYD. COND. ALONG ROWS =   6.90000     FOR LAYER  31

      VERTICAL HYD. COND. =  0.100000     FOR LAYER  31

         SPECIFIC STORAGE =  2.000000E-04 FOR LAYER  31

           SPECIFIC YIELD =  0.330000     FOR LAYER  31

    HYD. COND. ALONG ROWS =   6.90000     FOR LAYER  32

      VERTICAL HYD. COND. =  0.100000     FOR LAYER  32

         SPECIFIC STORAGE =  2.000000E-04 FOR LAYER  32

           SPECIFIC YIELD =  0.330000     FOR LAYER  32

    HYD. COND. ALONG ROWS =   6.90000     FOR LAYER  33

      VERTICAL HYD. COND. =  0.100000     FOR LAYER  33

         SPECIFIC STORAGE =  2.000000E-04 FOR LAYER  33

           SPECIFIC YIELD =  0.330000     FOR LAYER  33

    HYD. COND. ALONG ROWS =   6.90000     FOR LAYER  34

      VERTICAL HYD. COND. =  0.100000     FOR LAYER  34

         SPECIFIC STORAGE =  2.000000E-04 FOR LAYER  34

           SPECIFIC YIELD =  0.330000     FOR LAYER  34

    HYD. COND. ALONG ROWS =   6.90000     FOR LAYER  35

      VERTICAL HYD. COND. =  0.100000     FOR LAYER  35

         SPECIFIC STORAGE =  2.000000E-04 FOR LAYER  35

           SPECIFIC YIELD =  0.330000     FOR LAYER  35

    HYD. COND. ALONG ROWS =   6.90000     FOR LAYER  36

      VERTICAL HYD. COND. =  0.100000     FOR LAYER  36

         SPECIFIC STORAGE =  2.000000E-04 FOR LAYER  36

           SPECIFIC YIELD =  0.330000     FOR LAYER  36

    HYD. COND. ALONG ROWS =   6.90000     FOR LAYER  37

      VERTICAL HYD. COND. =  0.100000     FOR LAYER  37

         SPECIFIC STORAGE =  2.000000E-04 FOR LAYER  37

           SPECIFIC YIELD =  0.330000     FOR LAYER  37

    HYD. COND. ALONG ROWS =   6.90000     FOR LAYER  38

      VERTICAL HYD. COND. =  0.100000     FOR LAYER  38

         SPECIFIC STORAGE =  2.000000E-04 FOR LAYER  38

           SPECIFIC YIELD =  0.330000     FOR LAYER  38

    HYD. COND. ALONG ROWS =   6.90000     FOR LAYER  39

      VERTICAL HYD. COND. =  0.100000     FOR LAYER  39

         SPECIFIC STORAGE =  2.000000E-04 FOR LAYER  39

           SPECIFIC YIELD =  0.330000     FOR LAYER  39

    HYD. COND. ALONG ROWS =   6.90000     FOR LAYER  40

      VERTICAL HYD. COND. =  0.100000     FOR LAYER  40

         SPECIFIC STORAGE =  2.000000E-04 FOR LAYER  40

           SPECIFIC YIELD =  0.330000     FOR LAYER  40

    HYD. COND. ALONG ROWS =   6.90000     FOR LAYER  41

      VERTICAL HYD. COND. =  0.100000     FOR LAYER  41

         SPECIFIC STORAGE =  2.000000E-04 FOR LAYER  41

           SPECIFIC YIELD =  0.330000     FOR LAYER  41

    HYD. COND. ALONG ROWS =   6.90000     FOR LAYER  42

      VERTICAL HYD. COND. =  0.100000     FOR LAYER  42

         SPECIFIC STORAGE =  2.000000E-04 FOR LAYER  42

           SPECIFIC YIELD =  0.330000     FOR LAYER  42

    HYD. COND. ALONG ROWS =   6.90000     FOR LAYER  43

      VERTICAL HYD. COND. =  0.100000     FOR LAYER  43

         SPECIFIC STORAGE =  2.000000E-04 FOR LAYER  43

           SPECIFIC YIELD =  0.330000     FOR LAYER  43

    HYD. COND. ALONG ROWS =   6.90000     FOR LAYER  44

      VERTICAL HYD. COND. =  0.100000     FOR LAYER  44

         SPECIFIC STORAGE =  2.000000E-04 FOR LAYER  44

           SPECIFIC YIELD =  0.330000     FOR LAYER  44

    HYD. COND. ALONG ROWS =   6.90000     FOR LAYER  45

      VERTICAL HYD. COND. =  0.100000     FOR LAYER  45

         SPECIFIC STORAGE =  2.000000E-04 FOR LAYER  45

           SPECIFIC YIELD =  0.330000     FOR LAYER  45

    HYD. COND. ALONG ROWS =   6.90000     FOR LAYER  46

      VERTICAL HYD. COND. =  0.100000     FOR LAYER  46

         SPECIFIC STORAGE =  2.000000E-04 FOR LAYER  46

           SPECIFIC YIELD =  0.330000     FOR LAYER  46

    HYD. COND. ALONG ROWS =   6.90000     FOR LAYER  47

      VERTICAL HYD. COND. =  0.100000     FOR LAYER  47

         SPECIFIC STORAGE =  2.000000E-04 FOR LAYER  47

           SPECIFIC YIELD =  0.330000     FOR LAYER  47

    HYD. COND. ALONG ROWS =   6.90000     FOR LAYER  48

      VERTICAL HYD. COND. =  0.100000     FOR LAYER  48

         SPECIFIC STORAGE =  2.000000E-04 FOR LAYER  48

           SPECIFIC YIELD =  0.330000     FOR LAYER  48

    HYD. COND. ALONG ROWS =   6.90000     FOR LAYER  49

      VERTICAL HYD. COND. =  0.100000     FOR LAYER  49

         SPECIFIC STORAGE =  2.000000E-04 FOR LAYER  49

           SPECIFIC YIELD =  0.330000     FOR LAYER  49

    HYD. COND. ALONG ROWS =   6.90000     FOR LAYER  50

      VERTICAL HYD. COND. =  0.100000     FOR LAYER  50

         SPECIFIC STORAGE =  2.000000E-04 FOR LAYER  50

           SPECIFIC YIELD =  0.330000     FOR LAYER  50

 WEL -- WELL PACKAGE, VERSION 7, 5/2/2005 INPUT READ FROM UNIT   20
 # WEL package for SEAWAT generated by Flopy 3.3.6
 No named parameters
 MAXIMUM OF      1 ACTIVE WELLS AT ONE TIME
 CELL-BY-CELL FLOWS WILL BE SAVED ON UNIT   53


     0 Well parameters

 PCG -- CONJUGATE-GRADIENT SOLUTION PACKAGE, VERSION 7, 5/2/2005
 # PCG package for SEAWAT generated by Flopy 3.3.6
 MAXIMUM OF     50 CALLS OF SOLUTION ROUTINE
 MAXIMUM OF     30 INTERNAL ITERATIONS PER CALL TO SOLUTION ROUTINE
 MATRIX PRECONDITIONING TYPE :    1



                                    SOLUTION BY THE CONJUGATE-GRADIENT METHOD
                                   -------------------------------------------
                    MAXIMUM NUMBER OF CALLS TO PCG ROUTINE =       50
                        MAXIMUM ITERATIONS PER CALL TO PCG =       30
                               MATRIX PRECONDITIONING TYPE =        1
        RELAXATION FACTOR (ONLY USED WITH PRECOND. TYPE 1) =    0.10000E+01
 PARAMETER OF POLYNOMIAL PRECOND. = 2 (2) OR IS CALCULATED :        0
                         HEAD CHANGE CRITERION FOR CLOSURE =    0.10000E-02
                     RESIDUAL CHANGE CRITERION FOR CLOSURE =    0.10000E-04
            PCG HEAD AND RESIDUAL CHANGE PRINTOUT INTERVAL =      999
     PRINTING FROM SOLVER IS LIMITED(1) OR SUPPRESSED (>1) =        3
                            STEADY-STATE DAMPING PARAMETER =    0.10000E+01
                               TRANSIENT DAMPING PARAMETER =    0.10000E+01
1
                            STRESS PERIOD NO.    1, LENGTH =   30.00000    
                            -----------------------------------------------

                              NUMBER OF TIME STEPS =     1

                               MULTIPLIER FOR DELT =     1.000

                            INITIAL TIME STEP SIZE =   30.00000    

      0 WELLS
 
 SOLVING FOR HEAD 

 CELL CONVERSIONS FOR ITER.=  1  LAYER=  1  STEP=  1  PERIOD=   1   (ROW,COL)
    DRY(  1,  1)   DRY(  1,  2)   DRY(  1,  3)   DRY(  1,  4)   DRY(  1,  5)   
    DRY(  1,  6)   DRY(  1,  7)   DRY(  1,  8)   DRY(  1,  9)   DRY(  1, 10)   
    DRY(  1, 11)   DRY(  1, 12)   DRY(  1, 13)   DRY(  1, 14)   DRY(  1, 15)   
    DRY(  1, 16)   DRY(  1, 17)   DRY(  1, 18)   DRY(  1, 19)   DRY(  1, 20)   
    DRY(  1, 21)   DRY(  1, 22)   DRY(  1, 23)   DRY(  1, 24)   DRY(  1, 25)   
    DRY(  1, 26)   DRY(  1, 27)   DRY(  1, 28)   DRY(  1, 29)   DRY(  1, 30)   
    DRY(  1, 31)   DRY(  1, 32)   DRY(  1, 33)   DRY(  1, 34)   DRY(  1, 35)   
    DRY(  1, 36)   DRY(  1, 37)   DRY(  1, 38)   DRY(  1, 39)   DRY(  1, 40)   
    DRY(  1, 41)   DRY(  1, 42)   DRY(  1, 43)   DRY(  1, 44)   DRY(  1, 45)   
    DRY(  1, 46)   DRY(  1, 47)   DRY(  1, 48)   DRY(  1, 49)   DRY(  1, 50)   
    DRY(  1, 51)   DRY(  1, 52)   DRY(  1, 53)   DRY(  1, 54)   DRY(  1, 55)   
    DRY(  1, 56)   DRY(  1, 57)   DRY(  1, 58)   DRY(  1, 59)   DRY(  1, 60)   
    DRY(  1, 61)   DRY(  1, 62)   DRY(  1, 63)   DRY(  1, 64)   DRY(  1, 65)   
    DRY(  1, 66)   DRY(  1, 67)   DRY(  1, 68)   DRY(  1, 69)   DRY(  1, 70)   
    DRY(  1, 71)   DRY(  1, 72)   DRY(  1, 73)   DRY(  1, 74)   DRY(  1, 75)   
    DRY(  1, 76)   DRY(  1, 77)   DRY(  1, 78)   DRY(  1, 79)   DRY(  1, 80)   
    DRY(  1, 81)   DRY(  1, 82)   DRY(  1, 83)   DRY(  1, 84)   DRY(  1, 85)   
    DRY(  1, 86)   DRY(  1, 87)   DRY(  1, 88)   DRY(  1, 89)   DRY(  1, 90)   
    DRY(  1, 91)   DRY(  1, 92)   DRY(  1, 93)   DRY(  1, 94)   DRY(  1, 95)   
    DRY(  1, 96)   DRY(  1, 97)   DRY(  1, 98)   DRY(  1, 99)   DRY(  1,100)   
    DRY(  1,101)   DRY(  1,102)   DRY(  1,103)   DRY(  1,104)   DRY(  1,105)   
    DRY(  1,106)   DRY(  1,107)   DRY(  1,108)   DRY(  1,109)   DRY(  1,110)   
    DRY(  1,111)   DRY(  1,112)   DRY(  1,113)   DRY(  1,114)   DRY(  1,115)   
    DRY(  1,116)   DRY(  1,117)   DRY(  1,118)   DRY(  1,119)   DRY(  1,120)   
    DRY(  1,121)   DRY(  1,122)   DRY(  1,123)   DRY(  1,124)   DRY(  1,125)   
    DRY(  1,126)   DRY(  1,127)   DRY(  1,128)   DRY(  1,129)   DRY(  1,130)   
    DRY(  1,131)   DRY(  1,132)   DRY(  1,133)   DRY(  1,134)   DRY(  1,135)   
    DRY(  1,136)   DRY(  1,137)   DRY(  1,138)   DRY(  1,139)   DRY(  1,140)   
    DRY(  1,141)   DRY(  1,142)   DRY(  1,143)   DRY(  1,144)   DRY(  1,145)   
    DRY(  1,146)   DRY(  1,147)   DRY(  1,148)   DRY(  1,149)   DRY(  1,150)   
    DRY(  1,151)   DRY(  1,152)   DRY(  1,153)   DRY(  1,154)   DRY(  1,155)   
    DRY(  1,156)   DRY(  1,157)   DRY(  1,158)   DRY(  1,159)   DRY(  1,160)   
    DRY(  1,161)   DRY(  1,162)   DRY(  1,163)   DRY(  1,164)   DRY(  1,165)   
    DRY(  1,166)   DRY(  1,167)   DRY(  1,168)   DRY(  1,169)   DRY(  1,170)   
    DRY(  1,171)   DRY(  1,172)   DRY(  1,173)   DRY(  1,174)   DRY(  1,175)   
    DRY(  1,176)   DRY(  1,177)   DRY(  1,178)   DRY(  1,179)   DRY(  1,180)   
    DRY(  1,181)   DRY(  1,182)   DRY(  1,183)   DRY(  1,184)   DRY(  1,185)   
    DRY(  1,186)   DRY(  1,187)   DRY(  1,188)   DRY(  1,189)   DRY(  1,190)   
    DRY(  1,191)   DRY(  1,192)   DRY(  1,193)   DRY(  1,194)   DRY(  1,195)   
    DRY(  1,196)   DRY(  1,197)   DRY(  1,198)   DRY(  1,199)   DRY(  1,200)   
    DRY(  1,201)   DRY(  1,202)   DRY(  1,203)   DRY(  1,204)   DRY(  1,205)   
    DRY(  1,206)   DRY(  1,207)   DRY(  1,208)   DRY(  1,209)   DRY(  1,210)   
    DRY(  1,211)   DRY(  1,212)   DRY(  1,213)   DRY(  1,214)   DRY(  1,215)   
    DRY(  1,216)   DRY(  1,217)   DRY(  1,218)   DRY(  1,219)   DRY(  1,220)   
    DRY(  2,  1)   DRY(  2,  2)   DRY(  2,  3)   DRY(  2,  4)   DRY(  2,  5)   
    DRY(  2,  6)   DRY(  2,  7)   DRY(  2,  8)   DRY(  2,  9)   DRY(  2, 10)   
    DRY(  2, 11)   DRY(  2, 12)   DRY(  2, 13)   DRY(  2, 14)   DRY(  2, 15)   
    DRY(  2, 16)   DRY(  2, 17)   DRY(  2, 18)   DRY(  2, 19)   DRY(  2, 20)   
    DRY(  2, 21)   DRY(  2, 22)   DRY(  2, 23)   DRY(  2, 24)   DRY(  2, 25)   
    DRY(  2, 26)   DRY(  2, 27)   DRY(  2, 28)   DRY(  2, 29)   DRY(  2, 30)   
    DRY(  2, 31)   DRY(  2, 32)   DRY(  2, 33)   DRY(  2, 34)   DRY(  2, 35)   
    DRY(  2, 36)   DRY(  2, 37)   DRY(  2, 38)   DRY(  2, 39)   DRY(  2, 40)   
    DRY(  2, 41)   DRY(  2, 42)   DRY(  2, 43)   DRY(  2, 44)   DRY(  2, 45)   
    DRY(  2, 46)   DRY(  2, 47)   DRY(  2, 48)   DRY(  2, 49)   DRY(  2, 50)   
    DRY(  2, 51)   DRY(  2, 52)   DRY(  2, 53)   DRY(  2, 54)   DRY(  2, 55)   
    DRY(  2, 56)   DRY(  2, 57)   DRY(  2, 58)   DRY(  2, 59)   DRY(  2, 60)   
    DRY(  2, 61)   DRY(  2, 62)   DRY(  2, 63)   DRY(  2, 64)   DRY(  2, 65)   
    DRY(  2, 66)   DRY(  2, 67)   DRY(  2, 68)   DRY(  2, 69)   DRY(  2, 70)   
    DRY(  2, 71)   DRY(  2, 72)   DRY(  2, 73)   DRY(  2, 74)   DRY(  2, 75)   
    DRY(  2, 76)   DRY(  2, 77)   DRY(  2, 78)   DRY(  2, 79)   DRY(  2, 80)   
    DRY(  2, 81)   DRY(  2, 82)   DRY(  2, 83)   DRY(  2, 84)   DRY(  2, 85)   
    DRY(  2, 86)   DRY(  2, 87)   DRY(  2, 88)   DRY(  2, 89)   DRY(  2, 90)   
    DRY(  2, 91)   DRY(  2, 92)   DRY(  2, 93)   DRY(  2, 94)   DRY(  2, 95)   
    DRY(  2, 96)   DRY(  2, 97)   DRY(  2, 98)   DRY(  2, 99)   DRY(  2,100)   
    DRY(  2,101)   DRY(  2,102)   DRY(  2,103)   DRY(  2,104)   DRY(  2,105)   
    DRY(  2,106)   DRY(  2,107)   DRY(  2,108)   DRY(  2,109)   DRY(  2,110)   
    DRY(  2,111)   DRY(  2,112)   DRY(  2,113)   DRY(  2,114)   DRY(  2,115)   
    DRY(  2,116)   DRY(  2,117)   DRY(  2,118)   DRY(  2,119)   DRY(  2,120)   
    DRY(  2,121)   DRY(  2,122)   DRY(  2,123)   DRY(  2,124)   DRY(  2,125)   
    DRY(  2,126)   DRY(  2,127)   DRY(  2,128)   DRY(  2,129)   DRY(  2,130)   
    DRY(  2,131)   DRY(  2,132)   DRY(  2,133)   DRY(  2,134)   DRY(  2,135)   
    DRY(  2,136)   DRY(  2,137)   DRY(  2,138)   DRY(  2,139)   DRY(  2,140)   
    DRY(  2,141)   DRY(  2,142)   DRY(  2,143)   DRY(  2,144)   DRY(  2,145)   
    DRY(  2,146)   DRY(  2,147)   DRY(  2,148)   DRY(  2,149)   DRY(  2,150)   
    DRY(  2,151)   DRY(  2,152)   DRY(  2,153)   DRY(  2,154)   DRY(  2,155)   
    DRY(  2,156)   DRY(  2,157)   DRY(  2,158)   DRY(  2,159)   DRY(  2,160)   
    DRY(  2,161)   DRY(  2,162)   DRY(  2,163)   DRY(  2,164)   DRY(  2,165)   
    DRY(  2,166)   DRY(  2,167)   DRY(  2,168)   DRY(  2,169)   DRY(  2,170)   
    DRY(  2,171)   DRY(  2,172)   DRY(  2,173)   DRY(  2,174)   DRY(  2,175)   
    DRY(  2,176)   DRY(  2,177)   DRY(  2,178)   DRY(  2,179)   DRY(  2,180)   
    DRY(  2,181)   DRY(  2,182)   DRY(  2,183)   DRY(  2,184)   DRY(  2,185)   
    DRY(  2,186)   DRY(  2,187)   DRY(  2,188)   DRY(  2,189)   DRY(  2,190)   
    DRY(  2,191)   DRY(  2,192)   DRY(  2,193)   DRY(  2,194)   DRY(  2,195)   
    DRY(  2,196)   DRY(  2,197)   DRY(  2,198)   DRY(  2,199)   DRY(  2,200)   
    DRY(  2,201)   DRY(  2,202)   DRY(  2,203)   DRY(  2,204)   DRY(  2,205)   
    DRY(  2,206)   DRY(  2,207)   DRY(  2,208)   DRY(  2,209)   DRY(  2,210)   
    DRY(  2,211)   DRY(  2,212)   DRY(  2,213)   DRY(  2,214)   DRY(  2,215)   
    DRY(  2,216)   DRY(  2,217)   DRY(  2,218)   DRY(  2,219)   DRY(  2,220)   

 CELL CONVERSIONS FOR ITER.=  1  LAYER=  2  STEP=  1  PERIOD=   1   (ROW,COL)
    DRY(  1,  1)   DRY(  1,  2)   DRY(  1,  3)   DRY(  1,  4)   DRY(  1,  5)   
    DRY(  1,  6)   DRY(  1,  7)   DRY(  1,  8)   DRY(  1,  9)   DRY(  1, 10)   
    DRY(  1, 11)   DRY(  1, 12)   DRY(  1, 13)   DRY(  1, 14)   DRY(  1, 15)   
    DRY(  1, 16)   DRY(  1, 17)   DRY(  1, 18)   DRY(  1, 19)   DRY(  1, 20)   
    DRY(  1, 21)   DRY(  1, 22)   DRY(  1, 23)   DRY(  1, 24)   DRY(  1, 25)   
    DRY(  1, 26)   DRY(  1, 27)   DRY(  1, 28)   DRY(  1, 29)   DRY(  1, 30)   
    DRY(  1, 31)   DRY(  1, 32)   DRY(  1, 33)   DRY(  1, 34)   DRY(  1, 35)   
    DRY(  1, 36)   DRY(  1, 37)   DRY(  1, 38)   DRY(  1, 39)   DRY(  1, 40)   
    DRY(  1, 41)   DRY(  1, 42)   DRY(  1, 43)   DRY(  1, 44)   DRY(  1, 45)   
    DRY(  1, 46)   DRY(  1, 47)   DRY(  1, 48)   DRY(  1, 49)   DRY(  1, 50)   
    DRY(  1, 51)   DRY(  1, 52)   DRY(  1, 53)   DRY(  1, 54)   DRY(  1, 55)   
    DRY(  1, 56)   DRY(  1, 57)   DRY(  1, 58)   DRY(  1, 59)   DRY(  1, 60)   
    DRY(  1, 61)   DRY(  1, 62)   DRY(  1, 63)   DRY(  1, 64)   DRY(  1, 65)   
    DRY(  1, 66)   DRY(  1, 67)   DRY(  1, 68)   DRY(  1, 69)   DRY(  1, 70)   
    DRY(  1, 71)   DRY(  1, 72)   DRY(  1, 73)   DRY(  1, 74)   DRY(  1, 75)   
    DRY(  1, 76)   DRY(  1, 77)   DRY(  1, 78)   DRY(  1, 79)   DRY(  1, 80)   
    DRY(  1, 81)   DRY(  1, 82)   DRY(  1, 83)   DRY(  1, 84)   DRY(  1, 85)   
    DRY(  1, 86)   DRY(  1, 87)   DRY(  1, 88)   DRY(  1, 89)   DRY(  1, 90)   
    DRY(  1, 91)   DRY(  1, 92)   DRY(  1, 93)   DRY(  1, 94)   DRY(  1, 95)   
    DRY(  1, 96)   DRY(  1, 97)   DRY(  1, 98)   DRY(  1, 99)   DRY(  1,100)   
    DRY(  1,101)   DRY(  1,102)   DRY(  1,103)   DRY(  1,104)   DRY(  1,105)   
    DRY(  1,106)   DRY(  1,107)   DRY(  1,108)   DRY(  1,109)   DRY(  1,110)   
    DRY(  1,111)   DRY(  1,112)   DRY(  1,113)   DRY(  1,114)   DRY(  1,115)   
    DRY(  1,116)   DRY(  1,117)   DRY(  1,118)   DRY(  1,119)   DRY(  1,120)   
    DRY(  1,121)   DRY(  1,122)   DRY(  1,123)   DRY(  1,124)   DRY(  1,125)   
    DRY(  1,126)   DRY(  1,127)   DRY(  1,128)   DRY(  1,129)   DRY(  1,130)   
    DRY(  1,131)   DRY(  1,132)   DRY(  1,133)   DRY(  1,134)   DRY(  1,135)   
    DRY(  1,136)   DRY(  1,137)   DRY(  1,138)   DRY(  1,139)   DRY(  1,140)   
    DRY(  1,141)   DRY(  1,142)   DRY(  1,143)   DRY(  1,144)   DRY(  1,145)   
    DRY(  1,146)   DRY(  1,147)   DRY(  1,148)   DRY(  1,149)   DRY(  1,150)   
    DRY(  1,151)   DRY(  1,152)   DRY(  1,153)   DRY(  1,154)   DRY(  1,155)   
    DRY(  1,156)   DRY(  1,157)   DRY(  1,158)   DRY(  1,159)   DRY(  1,160)   
    DRY(  1,161)   DRY(  1,162)   DRY(  1,163)   DRY(  1,164)   DRY(  1,165)   
    DRY(  1,166)   DRY(  1,167)   DRY(  1,168)   DRY(  1,169)   DRY(  1,170)   
    DRY(  1,171)   DRY(  1,172)   DRY(  1,173)   DRY(  1,174)   DRY(  1,175)   
    DRY(  1,176)   DRY(  1,177)   DRY(  1,178)   DRY(  1,179)   DRY(  1,180)   
    DRY(  1,181)   DRY(  1,182)   DRY(  1,183)   DRY(  1,184)   DRY(  1,185)   
    DRY(  1,186)   DRY(  1,187)   DRY(  1,188)   DRY(  1,189)   DRY(  1,190)   
    DRY(  1,191)   DRY(  1,192)   DRY(  1,193)   DRY(  1,194)   DRY(  1,195)   
    DRY(  1,196)   DRY(  1,197)   DRY(  1,198)   DRY(  1,199)   DRY(  1,200)   
    DRY(  1,201)   DRY(  1,202)   DRY(  1,203)   DRY(  1,204)   DRY(  1,205)   
    DRY(  1,206)   DRY(  1,207)   DRY(  1,208)   DRY(  1,209)   DRY(  1,210)   
    DRY(  1,211)   DRY(  1,212)   DRY(  1,213)   DRY(  1,214)   DRY(  1,215)   
    DRY(  1,216)   DRY(  1,217)   DRY(  1,218)   DRY(  1,219)   DRY(  1,220)   
    DRY(  2,  1)   DRY(  2,  2)   DRY(  2,  3)   DRY(  2,  4)   DRY(  2,  5)   
    DRY(  2,  6)   DRY(  2,  7)   DRY(  2,  8)   DRY(  2,  9)   DRY(  2, 10)   
    DRY(  2, 11)   DRY(  2, 12)   DRY(  2, 13)   DRY(  2, 14)   DRY(  2, 15)   
    DRY(  2, 16)   DRY(  2, 17)   DRY(  2, 18)   DRY(  2, 19)   DRY(  2, 20)   
    DRY(  2, 21)   DRY(  2, 22)   DRY(  2, 23)   DRY(  2, 24)   DRY(  2, 25)   
    DRY(  2, 26)   DRY(  2, 27)   DRY(  2, 28)   DRY(  2, 29)   DRY(  2, 30)   
    DRY(  2, 31)   DRY(  2, 32)   DRY(  2, 33)   DRY(  2, 34)   DRY(  2, 35)   
    DRY(  2, 36)   DRY(  2, 37)   DRY(  2, 38)   DRY(  2, 39)   DRY(  2, 40)   
    DRY(  2, 41)   DRY(  2, 42)   DRY(  2, 43)   DRY(  2, 44)   DRY(  2, 45)   
    DRY(  2, 46)   DRY(  2, 47)   DRY(  2, 48)   DRY(  2, 49)   DRY(  2, 50)   
    DRY(  2, 51)   DRY(  2, 52)   DRY(  2, 53)   DRY(  2, 54)   DRY(  2, 55)   
    DRY(  2, 56)   DRY(  2, 57)   DRY(  2, 58)   DRY(  2, 59)   DRY(  2, 60)   
    DRY(  2, 61)   DRY(  2, 62)   DRY(  2, 63)   DRY(  2, 64)   DRY(  2, 65)   
    DRY(  2, 66)   DRY(  2, 67)   DRY(  2, 68)   DRY(  2, 69)   DRY(  2, 70)   
    DRY(  2, 71)   DRY(  2, 72)   DRY(  2, 73)   DRY(  2, 74)   DRY(  2, 75)   
    DRY(  2, 76)   DRY(  2, 77)   DRY(  2, 78)   DRY(  2, 79)   DRY(  2, 80)   
    DRY(  2, 81)   DRY(  2, 82)   DRY(  2, 83)   DRY(  2, 84)   DRY(  2, 85)   
    DRY(  2, 86)   DRY(  2, 87)   DRY(  2, 88)   DRY(  2, 89)   DRY(  2, 90)   
    DRY(  2, 91)   DRY(  2, 92)   DRY(  2, 93)   DRY(  2, 94)   DRY(  2, 95)   
    DRY(  2, 96)   DRY(  2, 97)   DRY(  2, 98)   DRY(  2, 99)   DRY(  2,100)   
    DRY(  2,101)   DRY(  2,102)   DRY(  2,103)   DRY(  2,104)   DRY(  2,105)   
    DRY(  2,106)   DRY(  2,107)   DRY(  2,108)   DRY(  2,109)   DRY(  2,110)   
    DRY(  2,111)   DRY(  2,112)   DRY(  2,113)   DRY(  2,114)   DRY(  2,115)   
    DRY(  2,116)   DRY(  2,117)   DRY(  2,118)   DRY(  2,119)   DRY(  2,120)   
    DRY(  2,121)   DRY(  2,122)   DRY(  2,123)   DRY(  2,124)   DRY(  2,125)   
    DRY(  2,126)   DRY(  2,127)   DRY(  2,128)   DRY(  2,129)   DRY(  2,130)   
    DRY(  2,131)   DRY(  2,132)   DRY(  2,133)   DRY(  2,134)   DRY(  2,135)   
    DRY(  2,136)   DRY(  2,137)   DRY(  2,138)   DRY(  2,139)   DRY(  2,140)   
    DRY(  2,141)   DRY(  2,142)   DRY(  2,143)   DRY(  2,144)   DRY(  2,145)   
    DRY(  2,146)   DRY(  2,147)   DRY(  2,148)   DRY(  2,149)   DRY(  2,150)   
    DRY(  2,151)   DRY(  2,152)   DRY(  2,153)   DRY(  2,154)   DRY(  2,155)   
    DRY(  2,156)   DRY(  2,157)   DRY(  2,158)   DRY(  2,159)   DRY(  2,160)   
    DRY(  2,161)   DRY(  2,162)   DRY(  2,163)   DRY(  2,164)   DRY(  2,165)   
    DRY(  2,166)   DRY(  2,167)   DRY(  2,168)   DRY(  2,169)   DRY(  2,170)   
    DRY(  2,171)   DRY(  2,172)   DRY(  2,173)   DRY(  2,174)   DRY(  2,175)   
    DRY(  2,176)   DRY(  2,177)   DRY(  2,178)   DRY(  2,179)   DRY(  2,180)   
    DRY(  2,181)   DRY(  2,182)   DRY(  2,183)   DRY(  2,184)   DRY(  2,185)   
    DRY(  2,186)   DRY(  2,187)   DRY(  2,188)   DRY(  2,189)   DRY(  2,190)   
    DRY(  2,191)   DRY(  2,192)   DRY(  2,193)   DRY(  2,194)   DRY(  2,195)   
    DRY(  2,196)   DRY(  2,197)   DRY(  2,198)   DRY(  2,199)   DRY(  2,200)   
    DRY(  2,201)   DRY(  2,202)   DRY(  2,203)   DRY(  2,204)   DRY(  2,205)   
    DRY(  2,206)   DRY(  2,207)   DRY(  2,208)   DRY(  2,209)   DRY(  2,210)   
    DRY(  2,211)   DRY(  2,212)   DRY(  2,213)   DRY(  2,214)   DRY(  2,215)   
    DRY(  2,216)   DRY(  2,217)   DRY(  2,218)   DRY(  2,219)   DRY(  2,220)   

 CELL CONVERSIONS FOR ITER.=  1  LAYER=  3  STEP=  1  PERIOD=   1   (ROW,COL)
    DRY(  1,  1)   DRY(  1,  2)   DRY(  1,  3)   DRY(  1,  4)   DRY(  1,  5)   
    DRY(  1,  6)   DRY(  1,  7)   DRY(  1,  8)   DRY(  1,  9)   DRY(  1, 10)   
    DRY(  1, 11)   DRY(  1, 12)   DRY(  1, 13)   DRY(  1, 14)   DRY(  1, 15)   
    DRY(  1, 16)   DRY(  1, 17)   DRY(  1, 18)   DRY(  1, 19)   DRY(  1, 20)   
    DRY(  1, 21)   DRY(  1, 22)   DRY(  1, 23)   DRY(  1, 24)   DRY(  1, 25)   
    DRY(  1, 26)   DRY(  1, 27)   DRY(  1, 28)   DRY(  1, 29)   DRY(  1, 30)   
    DRY(  1, 31)   DRY(  1, 32)   DRY(  1, 33)   DRY(  1, 34)   DRY(  1, 35)   
    DRY(  1, 36)   DRY(  1, 37)   DRY(  1, 38)   DRY(  1, 39)   DRY(  1, 40)   
    DRY(  1, 41)   DRY(  1, 42)   DRY(  1, 43)   DRY(  1, 44)   DRY(  1, 45)   
    DRY(  1, 46)   DRY(  1, 47)   DRY(  1, 48)   DRY(  1, 49)   DRY(  1, 50)   
    DRY(  1, 51)   DRY(  1, 52)   DRY(  1, 53)   DRY(  1, 54)   DRY(  1, 55)   
    DRY(  1, 56)   DRY(  1, 57)   DRY(  1, 58)   DRY(  1, 59)   DRY(  1, 60)   
    DRY(  1, 61)   DRY(  1, 62)   DRY(  1, 63)   DRY(  1, 64)   DRY(  1, 65)   
    DRY(  1, 66)   DRY(  1, 67)   DRY(  1, 68)   DRY(  1, 69)   DRY(  1, 70)   
    DRY(  1, 71)   DRY(  1, 72)   DRY(  1, 73)   DRY(  1, 74)   DRY(  1, 75)   
    DRY(  1, 76)   DRY(  1, 77)   DRY(  1, 78)   DRY(  1, 79)   DRY(  1, 80)   
    DRY(  1, 81)   DRY(  1, 82)   DRY(  1, 83)   DRY(  1, 84)   DRY(  1, 85)   
    DRY(  1, 86)   DRY(  1, 87)   DRY(  1, 88)   DRY(  1, 89)   DRY(  1, 90)   
    DRY(  1, 91)   DRY(  1, 92)   DRY(  1, 93)   DRY(  1, 94)   DRY(  1, 95)   
    DRY(  1, 96)   DRY(  1, 97)   DRY(  1, 98)   DRY(  1, 99)   DRY(  1,100)   
    DRY(  1,101)   DRY(  1,102)   DRY(  1,103)   DRY(  1,104)   DRY(  1,105)   
    DRY(  1,106)   DRY(  1,107)   DRY(  1,108)   DRY(  1,109)   DRY(  1,110)   
    DRY(  1,111)   DRY(  1,112)   DRY(  1,113)   DRY(  1,114)   DRY(  1,115)   
    DRY(  1,116)   DRY(  1,117)   DRY(  1,118)   DRY(  1,119)   DRY(  1,120)   
    DRY(  1,121)   DRY(  1,122)   DRY(  1,123)   DRY(  1,124)   DRY(  1,125)   
    DRY(  1,126)   DRY(  1,127)   DRY(  1,128)   DRY(  1,129)   DRY(  1,130)   
    DRY(  1,131)   DRY(  1,132)   DRY(  1,133)   DRY(  1,134)   DRY(  1,135)   
    DRY(  1,136)   DRY(  1,137)   DRY(  1,138)   DRY(  1,139)   DRY(  1,140)   
    DRY(  1,141)   DRY(  1,142)   DRY(  1,143)   DRY(  1,144)   DRY(  1,145)   
    DRY(  1,146)   DRY(  1,147)   DRY(  1,148)   DRY(  1,149)   DRY(  1,150)   
    DRY(  1,151)   DRY(  1,152)   DRY(  1,153)   DRY(  1,154)   DRY(  1,155)   
    DRY(  1,156)   DRY(  1,157)   DRY(  1,158)   DRY(  1,159)   DRY(  1,160)   
    DRY(  1,161)   DRY(  1,162)   DRY(  1,163)   DRY(  1,164)   DRY(  1,165)   
    DRY(  1,166)   DRY(  1,167)   DRY(  1,168)   DRY(  1,169)   DRY(  1,170)   
    DRY(  1,171)   DRY(  1,172)   DRY(  1,173)   DRY(  1,174)   DRY(  1,175)   
    DRY(  1,176)   DRY(  1,177)   DRY(  1,178)   DRY(  1,179)   DRY(  1,180)   
    DRY(  1,181)   DRY(  1,182)   DRY(  1,183)   DRY(  1,184)   DRY(  1,185)   
    DRY(  1,186)   DRY(  1,187)   DRY(  1,188)   DRY(  1,189)   DRY(  1,190)   
    DRY(  1,191)   DRY(  1,192)   DRY(  1,193)   DRY(  1,194)   DRY(  1,195)   
    DRY(  1,196)   DRY(  1,197)   DRY(  1,198)   DRY(  1,199)   DRY(  1,200)   
    DRY(  1,201)   DRY(  1,202)   DRY(  1,203)   DRY(  1,204)   DRY(  1,205)   
    DRY(  1,206)   DRY(  1,207)   DRY(  1,208)   DRY(  1,209)   DRY(  1,210)   
    DRY(  1,211)   DRY(  1,212)   DRY(  1,213)   DRY(  1,214)   DRY(  1,215)   
    DRY(  1,216)   DRY(  1,217)   DRY(  1,218)   DRY(  1,219)   DRY(  1,220)   
    DRY(  2,  1)   DRY(  2,  2)   DRY(  2,  3)   DRY(  2,  4)   DRY(  2,  5)   
    DRY(  2,  6)   DRY(  2,  7)   DRY(  2,  8)   DRY(  2,  9)   DRY(  2, 10)   
    DRY(  2, 11)   DRY(  2, 12)   DRY(  2, 13)   DRY(  2, 14)   DRY(  2, 15)   
    DRY(  2, 16)   DRY(  2, 17)   DRY(  2, 18)   DRY(  2, 19)   DRY(  2, 20)   
    DRY(  2, 21)   DRY(  2, 22)   DRY(  2, 23)   DRY(  2, 24)   DRY(  2, 25)   
    DRY(  2, 26)   DRY(  2, 27)   DRY(  2, 28)   DRY(  2, 29)   DRY(  2, 30)   
    DRY(  2, 31)   DRY(  2, 32)   DRY(  2, 33)   DRY(  2, 34)   DRY(  2, 35)   
    DRY(  2, 36)   DRY(  2, 37)   DRY(  2, 38)   DRY(  2, 39)   DRY(  2, 40)   
    DRY(  2, 41)   DRY(  2, 42)   DRY(  2, 43)   DRY(  2, 44)   DRY(  2, 45)   
    DRY(  2, 46)   DRY(  2, 47)   DRY(  2, 48)   DRY(  2, 49)   DRY(  2, 50)   
    DRY(  2, 51)   DRY(  2, 52)   DRY(  2, 53)   DRY(  2, 54)   DRY(  2, 55)   
    DRY(  2, 56)   DRY(  2, 57)   DRY(  2, 58)   DRY(  2, 59)   DRY(  2, 60)   
    DRY(  2, 61)   DRY(  2, 62)   DRY(  2, 63)   DRY(  2, 64)   DRY(  2, 65)   
    DRY(  2, 66)   DRY(  2, 67)   DRY(  2, 68)   DRY(  2, 69)   DRY(  2, 70)   
    DRY(  2, 71)   DRY(  2, 72)   DRY(  2, 73)   DRY(  2, 74)   DRY(  2, 75)   
    DRY(  2, 76)   DRY(  2, 77)   DRY(  2, 78)   DRY(  2, 79)   DRY(  2, 80)   
    DRY(  2, 81)   DRY(  2, 82)   DRY(  2, 83)   DRY(  2, 84)   DRY(  2, 85)   
    DRY(  2, 86)   DRY(  2, 87)   DRY(  2, 88)   DRY(  2, 89)   DRY(  2, 90)   
    DRY(  2, 91)   DRY(  2, 92)   DRY(  2, 93)   DRY(  2, 94)   DRY(  2, 95)   
    DRY(  2, 96)   DRY(  2, 97)   DRY(  2, 98)   DRY(  2, 99)   DRY(  2,100)   
    DRY(  2,101)   DRY(  2,102)   DRY(  2,103)   DRY(  2,104)   DRY(  2,105)   
    DRY(  2,106)   DRY(  2,107)   DRY(  2,108)   DRY(  2,109)   DRY(  2,110)   
    DRY(  2,111)   DRY(  2,112)   DRY(  2,113)   DRY(  2,114)   DRY(  2,115)   
    DRY(  2,116)   DRY(  2,117)   DRY(  2,118)   DRY(  2,119)   DRY(  2,120)   
    DRY(  2,121)   DRY(  2,122)   DRY(  2,123)   DRY(  2,124)   DRY(  2,125)   
    DRY(  2,126)   DRY(  2,127)   DRY(  2,128)   DRY(  2,129)   DRY(  2,130)   
    DRY(  2,131)   DRY(  2,132)   DRY(  2,133)   DRY(  2,134)   DRY(  2,135)   
    DRY(  2,136)   DRY(  2,137)   DRY(  2,138)   DRY(  2,139)   DRY(  2,140)   
    DRY(  2,141)   DRY(  2,142)   DRY(  2,143)   DRY(  2,144)   DRY(  2,145)   
    DRY(  2,146)   DRY(  2,147)   DRY(  2,148)   DRY(  2,149)   DRY(  2,150)   
    DRY(  2,151)   DRY(  2,152)   DRY(  2,153)   DRY(  2,154)   DRY(  2,155)   
    DRY(  2,156)   DRY(  2,157)   DRY(  2,158)   DRY(  2,159)   DRY(  2,160)   
    DRY(  2,161)   DRY(  2,162)   DRY(  2,163)   DRY(  2,164)   DRY(  2,165)   
    DRY(  2,166)   DRY(  2,167)   DRY(  2,168)   DRY(  2,169)   DRY(  2,170)   
    DRY(  2,171)   DRY(  2,172)   DRY(  2,173)   DRY(  2,174)   DRY(  2,175)   
    DRY(  2,176)   DRY(  2,177)   DRY(  2,178)   DRY(  2,179)   DRY(  2,180)   
    DRY(  2,181)   DRY(  2,182)   DRY(  2,183)   DRY(  2,184)   DRY(  2,185)   
    DRY(  2,186)   DRY(  2,187)   DRY(  2,188)   DRY(  2,189)   DRY(  2,190)   
    DRY(  2,191)   DRY(  2,192)   DRY(  2,193)   DRY(  2,194)   DRY(  2,195)   
    DRY(  2,196)   DRY(  2,197)   DRY(  2,198)   DRY(  2,199)   DRY(  2,200)   
    DRY(  2,201)   DRY(  2,202)   DRY(  2,203)   DRY(  2,204)   DRY(  2,205)   
    DRY(  2,206)   DRY(  2,207)   DRY(  2,208)   DRY(  2,209)   DRY(  2,210)   
    DRY(  2,211)   DRY(  2,212)   DRY(  2,213)   DRY(  2,214)   DRY(  2,215)   
    DRY(  2,216)   DRY(  2,217)   DRY(  2,218)   DRY(  2,219)   DRY(  2,220)   

 CELL CONVERSIONS FOR ITER.=  1  LAYER=  4  STEP=  1  PERIOD=   1   (ROW,COL)
    DRY(  1,  1)   DRY(  1,  2)   DRY(  1,  3)   DRY(  1,  4)   DRY(  1,  5)   
    DRY(  1,  6)   DRY(  1,  7)   DRY(  1,  8)   DRY(  1,  9)   DRY(  1, 10)   
    DRY(  1, 11)   DRY(  1, 12)   DRY(  1, 13)   DRY(  1, 14)   DRY(  1, 15)   
    DRY(  1, 16)   DRY(  1, 17)   DRY(  1, 18)   DRY(  1, 19)   DRY(  1, 20)   
    DRY(  1, 21)   DRY(  1, 22)   DRY(  1, 23)   DRY(  1, 24)   DRY(  1, 25)   
    DRY(  1, 26)   DRY(  1, 27)   DRY(  1, 28)   DRY(  1, 29)   DRY(  1, 30)   
    DRY(  1, 31)   DRY(  1, 32)   DRY(  1, 33)   DRY(  1, 34)   DRY(  1, 35)   
    DRY(  1, 36)   DRY(  1, 37)   DRY(  1, 38)   DRY(  1, 39)   DRY(  1, 40)   
    DRY(  1, 41)   DRY(  1, 42)   DRY(  1, 43)   DRY(  1, 44)   DRY(  1, 45)   
    DRY(  1, 46)   DRY(  1, 47)   DRY(  1, 48)   DRY(  1, 49)   DRY(  1, 50)   
    DRY(  1, 51)   DRY(  1, 52)   DRY(  1, 53)   DRY(  1, 54)   DRY(  1, 55)   
    DRY(  1, 56)   DRY(  1, 57)   DRY(  1, 58)   DRY(  1, 59)   DRY(  1, 60)   
    DRY(  1, 61)   DRY(  1, 62)   DRY(  1, 63)   DRY(  1, 64)   DRY(  1, 65)   
    DRY(  1, 66)   DRY(  1, 67)   DRY(  1, 68)   DRY(  1, 69)   DRY(  1, 70)   
    DRY(  1, 71)   DRY(  1, 72)   DRY(  1, 73)   DRY(  1, 74)   DRY(  1, 75)   
    DRY(  1, 76)   DRY(  1, 77)   DRY(  1, 78)   DRY(  1, 79)   DRY(  1, 80)   
    DRY(  1, 81)   DRY(  1, 82)   DRY(  1, 83)   DRY(  1, 84)   DRY(  1, 85)   
    DRY(  1, 86)   DRY(  1, 87)   DRY(  1, 88)   DRY(  1, 89)   DRY(  1, 90)   
    DRY(  1, 91)   DRY(  1, 92)   DRY(  1, 93)   DRY(  1, 94)   DRY(  1, 95)   
    DRY(  1, 96)   DRY(  1, 97)   DRY(  1, 98)   DRY(  1, 99)   DRY(  1,100)   
    DRY(  1,101)   DRY(  1,102)   DRY(  1,103)   DRY(  1,104)   DRY(  1,105)   
    DRY(  1,106)   DRY(  1,107)   DRY(  1,108)   DRY(  1,109)   DRY(  1,110)   
    DRY(  1,111)   DRY(  1,112)   DRY(  1,113)   DRY(  1,114)   DRY(  1,115)   
    DRY(  1,116)   DRY(  1,117)   DRY(  1,118)   DRY(  1,119)   DRY(  1,120)   
    DRY(  1,121)   DRY(  1,122)   DRY(  1,123)   DRY(  1,124)   DRY(  1,125)   
    DRY(  1,126)   DRY(  1,127)   DRY(  1,128)   DRY(  1,129)   DRY(  1,130)   
    DRY(  1,131)   DRY(  1,132)   DRY(  1,133)   DRY(  1,134)   DRY(  1,135)   
    DRY(  1,136)   DRY(  1,137)   DRY(  1,138)   DRY(  1,139)   DRY(  1,140)   
    DRY(  1,141)   DRY(  1,142)   DRY(  1,143)   DRY(  1,144)   DRY(  1,145)   
    DRY(  1,146)   DRY(  1,147)   DRY(  1,148)   DRY(  1,149)   DRY(  1,150)   
    DRY(  1,151)   DRY(  1,152)   DRY(  1,153)   DRY(  1,154)   DRY(  1,155)   
    DRY(  1,156)   DRY(  1,157)   DRY(  1,158)   DRY(  1,159)   DRY(  1,160)   
    DRY(  1,161)   DRY(  1,162)   DRY(  1,163)   DRY(  1,164)   DRY(  1,165)   
    DRY(  1,166)   DRY(  1,167)   DRY(  1,168)   DRY(  1,169)   DRY(  1,170)   
    DRY(  1,171)   DRY(  1,172)   DRY(  1,173)   DRY(  1,174)   DRY(  1,175)   
    DRY(  1,176)   DRY(  1,177)   DRY(  1,178)   DRY(  1,179)   DRY(  1,180)   
    DRY(  1,181)   DRY(  1,182)   DRY(  1,183)   DRY(  1,184)   DRY(  1,185)   
    DRY(  1,186)   DRY(  1,187)   DRY(  1,188)   DRY(  1,189)   DRY(  1,190)   
    DRY(  1,191)   DRY(  1,192)   DRY(  1,193)   DRY(  1,194)   DRY(  1,195)   
    DRY(  1,196)   DRY(  1,197)   DRY(  1,198)   DRY(  1,199)   DRY(  1,200)   
    DRY(  1,201)   DRY(  1,202)   DRY(  1,203)   DRY(  1,204)   DRY(  1,205)   
    DRY(  1,206)   DRY(  1,207)   DRY(  1,208)   DRY(  1,209)   DRY(  1,210)   
    DRY(  1,211)   DRY(  1,212)   DRY(  1,213)   DRY(  1,214)   DRY(  1,215)   
    DRY(  1,216)   DRY(  1,217)   DRY(  1,218)   DRY(  1,219)   DRY(  1,220)   
    DRY(  2,  1)   DRY(  2,  2)   DRY(  2,  3)   DRY(  2,  4)   DRY(  2,  5)   
    DRY(  2,  6)   DRY(  2,  7)   DRY(  2,  8)   DRY(  2,  9)   DRY(  2, 10)   
    DRY(  2, 11)   DRY(  2, 12)   DRY(  2, 13)   DRY(  2, 14)   DRY(  2, 15)   
    DRY(  2, 16)   DRY(  2, 17)   DRY(  2, 18)   DRY(  2, 19)   DRY(  2, 20)   
    DRY(  2, 21)   DRY(  2, 22)   DRY(  2, 23)   DRY(  2, 24)   DRY(  2, 25)   
    DRY(  2, 26)   DRY(  2, 27)   DRY(  2, 28)   DRY(  2, 29)   DRY(  2, 30)   
    DRY(  2, 31)   DRY(  2, 32)   DRY(  2, 33)   DRY(  2, 34)   DRY(  2, 35)   
    DRY(  2, 36)   DRY(  2, 37)   DRY(  2, 38)   DRY(  2, 39)   DRY(  2, 40)   
    DRY(  2, 41)   DRY(  2, 42)   DRY(  2, 43)   DRY(  2, 44)   DRY(  2, 45)   
    DRY(  2, 46)   DRY(  2, 47)   DRY(  2, 48)   DRY(  2, 49)   DRY(  2, 50)   
    DRY(  2, 51)   DRY(  2, 52)   DRY(  2, 53)   DRY(  2, 54)   DRY(  2, 55)   
    DRY(  2, 56)   DRY(  2, 57)   DRY(  2, 58)   DRY(  2, 59)   DRY(  2, 60)   
    DRY(  2, 61)   DRY(  2, 62)   DRY(  2, 63)   DRY(  2, 64)   DRY(  2, 65)   
    DRY(  2, 66)   DRY(  2, 67)   DRY(  2, 68)   DRY(  2, 69)   DRY(  2, 70)   
    DRY(  2, 71)   DRY(  2, 72)   DRY(  2, 73)   DRY(  2, 74)   DRY(  2, 75)   
    DRY(  2, 76)   DRY(  2, 77)   DRY(  2, 78)   DRY(  2, 79)   DRY(  2, 80)   
    DRY(  2, 81)   DRY(  2, 82)   DRY(  2, 83)   DRY(  2, 84)   DRY(  2, 85)   
    DRY(  2, 86)   DRY(  2, 87)   DRY(  2, 88)   DRY(  2, 89)   DRY(  2, 90)   
    DRY(  2, 91)   DRY(  2, 92)   DRY(  2, 93)   DRY(  2, 94)   DRY(  2, 95)   
    DRY(  2, 96)   DRY(  2, 97)   DRY(  2, 98)   DRY(  2, 99)   DRY(  2,100)   
    DRY(  2,101)   DRY(  2,102)   DRY(  2,103)   DRY(  2,104)   DRY(  2,105)   
    DRY(  2,106)   DRY(  2,107)   DRY(  2,108)   DRY(  2,109)   DRY(  2,110)   
    DRY(  2,111)   DRY(  2,112)   DRY(  2,113)   DRY(  2,114)   DRY(  2,115)   
    DRY(  2,116)   DRY(  2,117)   DRY(  2,118)   DRY(  2,119)   DRY(  2,120)   
    DRY(  2,121)   DRY(  2,122)   DRY(  2,123)   DRY(  2,124)   DRY(  2,125)   
    DRY(  2,126)   DRY(  2,127)   DRY(  2,128)   DRY(  2,129)   DRY(  2,130)   
    DRY(  2,131)   DRY(  2,132)   DRY(  2,133)   DRY(  2,134)   DRY(  2,135)   
    DRY(  2,136)   DRY(  2,137)   DRY(  2,138)   DRY(  2,139)   DRY(  2,140)   
    DRY(  2,141)   DRY(  2,142)   DRY(  2,143)   DRY(  2,144)   DRY(  2,145)   
    DRY(  2,146)   DRY(  2,147)   DRY(  2,148)   DRY(  2,149)   DRY(  2,150)   
    DRY(  2,151)   DRY(  2,152)   DRY(  2,153)   DRY(  2,154)   DRY(  2,155)   
    DRY(  2,156)   DRY(  2,157)   DRY(  2,158)   DRY(  2,159)   DRY(  2,160)   
    DRY(  2,161)   DRY(  2,162)   DRY(  2,163)   DRY(  2,164)   DRY(  2,165)   
    DRY(  2,166)   DRY(  2,167)   DRY(  2,168)   DRY(  2,169)   DRY(  2,170)   
    DRY(  2,171)   DRY(  2,172)   DRY(  2,173)   DRY(  2,174)   DRY(  2,175)   
    DRY(  2,176)   DRY(  2,177)   DRY(  2,178)   DRY(  2,179)   DRY(  2,180)   
    DRY(  2,181)   DRY(  2,182)   DRY(  2,183)   DRY(  2,184)   DRY(  2,185)   
    DRY(  2,186)   DRY(  2,187)   DRY(  2,188)   DRY(  2,189)   DRY(  2,190)   
    DRY(  2,191)   DRY(  2,192)   DRY(  2,193)   DRY(  2,194)   DRY(  2,195)   
    DRY(  2,196)   DRY(  2,197)   DRY(  2,198)   DRY(  2,199)   DRY(  2,200)   
    DRY(  2,201)   DRY(  2,202)   DRY(  2,203)   DRY(  2,204)   DRY(  2,205)   
    DRY(  2,206)   DRY(  2,207)   DRY(  2,208)   DRY(  2,209)   DRY(  2,210)   
    DRY(  2,211)   DRY(  2,212)   DRY(  2,213)   DRY(  2,214)   DRY(  2,215)   
    DRY(  2,216)   DRY(  2,217)   DRY(  2,218)   DRY(  2,219)   DRY(  2,220)   

 CELL CONVERSIONS FOR ITER.=  2  LAYER=  1  STEP=  1  PERIOD=   1   (ROW,COL)
    DRY(  3,  1)   DRY(  3,  2)   DRY(  3,  3)   DRY(  3,  4)   DRY(  3,  5)   
    DRY(  3,  6)   DRY(  3,  7)   DRY(  3,  8)   DRY(  3,  9)   DRY(  3, 10)   
    DRY(  3, 11)   DRY(  3, 12)   DRY(  3, 13)   DRY(  3, 14)   DRY(  3, 15)   
    DRY(  3, 16)   DRY(  3, 17)   DRY(  3, 18)   DRY(  3, 19)   DRY(  3, 20)   
    DRY(  3, 21)   DRY(  3, 22)   DRY(  3, 23)   DRY(  3, 24)   DRY(  3, 25)   
    DRY(  3, 26)   DRY(  3, 27)   DRY(  3, 28)   DRY(  3, 29)   DRY(  3, 30)   
    DRY(  3, 31)   DRY(  3, 32)   DRY(  3, 33)   DRY(  3, 34)   DRY(  3, 35)   
    DRY(  3, 36)   DRY(  3, 37)   DRY(  3, 38)   DRY(  3, 39)   DRY(  3, 40)   
    DRY(  3, 41)   DRY(  3, 42)   DRY(  3, 43)   DRY(  3, 44)   DRY(  3, 45)   
    DRY(  3, 46)   DRY(  3, 47)   DRY(  3, 48)   DRY(  3, 49)   DRY(  3, 50)   
    DRY(  3, 51)   DRY(  3, 52)   DRY(  3, 53)   DRY(  3, 54)   DRY(  3, 55)   
    DRY(  3, 56)   DRY(  3, 57)   DRY(  3, 58)   DRY(  3, 59)   DRY(  3, 60)   
    DRY(  3, 61)   DRY(  3, 62)   DRY(  3, 63)   DRY(  3, 64)   DRY(  3, 65)   
    DRY(  3, 66)   DRY(  3, 67)   DRY(  3, 68)   DRY(  3, 69)   DRY(  3, 70)   
    DRY(  3, 71)   DRY(  3, 72)   DRY(  3, 73)   DRY(  3, 74)   DRY(  3, 75)   
    DRY(  3, 76)   DRY(  3, 77)   DRY(  3, 78)   DRY(  3, 79)   DRY(  3, 80)   
    DRY(  3, 81)   DRY(  3, 82)   DRY(  3, 83)   DRY(  3, 84)   DRY(  3, 85)   
    DRY(  3, 86)   DRY(  3, 87)   DRY(  3, 88)   DRY(  3, 89)   DRY(  3, 90)   
    DRY(  3, 91)   DRY(  3, 92)   DRY(  3, 93)   DRY(  3, 94)   DRY(  3, 95)   
    DRY(  3, 96)   DRY(  3, 97)   DRY(  3, 98)   DRY(  3, 99)   DRY(  3,100)   
    DRY(  3,101)   DRY(  3,102)   DRY(  3,103)   DRY(  3,104)   DRY(  3,105)   
    DRY(  3,106)   DRY(  3,107)   DRY(  3,108)   DRY(  3,109)   DRY(  3,110)   
    DRY(  3,111)   DRY(  3,112)   DRY(  3,113)   DRY(  3,114)   DRY(  3,115)   
    DRY(  3,116)   DRY(  3,117)   DRY(  3,118)   DRY(  3,119)   DRY(  3,120)   
    DRY(  3,121)   DRY(  3,122)   DRY(  3,123)   DRY(  3,124)   DRY(  3,125)   
    DRY(  3,126)   DRY(  3,127)   DRY(  3,128)   DRY(  3,129)   DRY(  3,130)   
    DRY(  3,131)   DRY(  3,132)   DRY(  3,133)   DRY(  3,134)   DRY(  3,135)   
    DRY(  3,136)   DRY(  3,137)   DRY(  3,138)   DRY(  3,139)   DRY(  3,140)   
    DRY(  3,141)   DRY(  3,142)   DRY(  3,143)   DRY(  3,144)   DRY(  3,145)   
    DRY(  3,146)   DRY(  3,147)   DRY(  3,148)   DRY(  3,149)   DRY(  3,150)   
    DRY(  3,151)   DRY(  3,152)   DRY(  3,153)   DRY(  3,154)   DRY(  3,155)   
    DRY(  3,156)   DRY(  3,157)   DRY(  3,158)   DRY(  3,159)   DRY(  3,160)   
    DRY(  3,161)   DRY(  3,162)   DRY(  3,163)   DRY(  3,164)   DRY(  3,165)   
    DRY(  3,166)   DRY(  3,167)   DRY(  3,168)   DRY(  3,169)   DRY(  3,170)   
    DRY(  3,171)   DRY(  3,172)   DRY(  3,173)   DRY(  3,174)   DRY(  3,175)   
    DRY(  3,176)   DRY(  3,177)   DRY(  3,178)   DRY(  3,179)   DRY(  3,180)   
    DRY(  3,181)   DRY(  3,182)   DRY(  3,183)   DRY(  3,184)   DRY(  3,185)   
    DRY(  3,186)   DRY(  3,187)   DRY(  3,188)   DRY(  3,189)   DRY(  3,190)   
    DRY(  3,191)   DRY(  3,192)   DRY(  3,193)   DRY(  3,194)   DRY(  3,195)   
    DRY(  3,196)   DRY(  3,197)   DRY(  3,198)   DRY(  3,199)   DRY(  3,200)   
    DRY(  3,201)   DRY(  3,202)   DRY(  3,203)   DRY(  3,204)   DRY(  3,205)   
    DRY(  3,206)   DRY(  3,207)   DRY(  3,208)   DRY(  3,209)   DRY(  3,210)   
    DRY(  3,211)   DRY(  3,212)   DRY(  3,213)   DRY(  3,214)   DRY(  3,215)   
    DRY(  3,216)   DRY(  3,217)   DRY(  3,218)   DRY(  3,219)   DRY(  3,220)   
    DRY(  4,  1)   DRY(  4,  2)   DRY(  4,  3)   DRY(  4,  4)   DRY(  4,  5)   
    DRY(  4,  6)   DRY(  4,  7)   DRY(  4,  8)   DRY(  4,  9)   DRY(  4, 10)   
    DRY(  4, 11)   DRY(  4, 12)   DRY(  4, 13)   DRY(  4, 14)   DRY(  4, 15)   
    DRY(  4, 16)   DRY(  4, 17)   DRY(  4, 18)   DRY(  4, 19)   DRY(  4, 20)   
    DRY(  4, 21)   DRY(  4, 22)   DRY(  4, 23)   DRY(  4, 24)   DRY(  4, 25)   
    DRY(  4, 26)   DRY(  4, 27)   DRY(  4, 28)   DRY(  4, 29)   DRY(  4, 30)   
    DRY(  4, 31)   DRY(  4, 32)   DRY(  4, 33)   DRY(  4, 34)   DRY(  4, 35)   
    DRY(  4, 36)   DRY(  4, 37)   DRY(  4, 38)   DRY(  4, 39)   DRY(  4, 40)   
    DRY(  4, 41)   DRY(  4, 42)   DRY(  4, 43)   DRY(  4, 44)   DRY(  4, 45)   
    DRY(  4, 46)   DRY(  4, 47)   DRY(  4, 48)   DRY(  4, 49)   DRY(  4, 50)   
    DRY(  4, 51)   DRY(  4, 52)   DRY(  4, 53)   DRY(  4, 54)   DRY(  4, 55)   
    DRY(  4, 56)   DRY(  4, 57)   DRY(  4, 58)   DRY(  4, 59)   DRY(  4, 60)   
    DRY(  4, 61)   DRY(  4, 62)   DRY(  4, 63)   DRY(  4, 64)   DRY(  4, 65)   
    DRY(  4, 66)   DRY(  4, 67)   DRY(  4, 68)   DRY(  4, 69)   DRY(  4, 70)   
    DRY(  4, 71)   DRY(  4, 72)   DRY(  4, 73)   DRY(  4, 74)   DRY(  4, 75)   
    DRY(  4, 76)   DRY(  4, 77)   DRY(  4, 78)   DRY(  4, 79)   DRY(  4, 80)   
    DRY(  4, 81)   DRY(  4, 82)   DRY(  4, 83)   DRY(  4, 84)   DRY(  4, 85)   
    DRY(  4, 86)   DRY(  4, 87)   DRY(  4, 88)   DRY(  4, 89)   DRY(  4, 90)   
    DRY(  4, 91)   DRY(  4, 92)   DRY(  4, 93)   DRY(  4, 94)   DRY(  4, 95)   
    DRY(  4, 96)   DRY(  4, 97)   DRY(  4, 98)   DRY(  4, 99)   DRY(  4,100)   
    DRY(  4,101)   DRY(  4,102)   DRY(  4,103)   DRY(  4,104)   DRY(  4,105)   
    DRY(  4,106)   DRY(  4,107)   DRY(  4,108)   DRY(  4,109)   DRY(  4,110)   
    DRY(  4,111)   DRY(  4,112)   DRY(  4,113)   DRY(  4,114)   DRY(  4,115)   
    DRY(  4,116)   DRY(  4,117)   DRY(  4,118)   DRY(  4,119)   DRY(  4,120)   
    DRY(  4,121)   DRY(  4,122)   DRY(  4,123)   DRY(  4,124)   DRY(  4,125)   
    DRY(  4,126)   DRY(  4,127)   DRY(  4,128)   DRY(  4,129)   DRY(  4,130)   
    DRY(  4,131)   DRY(  4,132)   DRY(  4,133)   DRY(  4,134)   DRY(  4,135)   
    DRY(  4,136)   DRY(  4,137)   DRY(  4,138)   DRY(  4,139)   DRY(  4,140)   
    DRY(  4,141)   DRY(  4,142)   DRY(  4,143)   DRY(  4,144)   DRY(  4,145)   
    DRY(  4,146)   DRY(  4,147)   DRY(  4,148)   DRY(  4,149)   DRY(  4,150)   
    DRY(  4,151)   DRY(  4,152)   DRY(  4,153)   DRY(  4,154)   DRY(  4,155)   
    DRY(  4,156)   DRY(  4,157)   DRY(  4,158)   DRY(  4,159)   DRY(  4,160)   
    DRY(  4,161)   DRY(  4,162)   DRY(  4,163)   DRY(  4,164)   DRY(  4,165)   
    DRY(  4,166)   DRY(  4,167)   DRY(  4,168)   DRY(  4,169)   DRY(  4,170)   
    DRY(  4,171)   DRY(  4,172)   DRY(  4,173)   DRY(  4,174)   DRY(  4,175)   
    DRY(  4,176)   DRY(  4,177)   DRY(  4,178)   DRY(  4,179)   DRY(  4,180)   
    DRY(  4,181)   DRY(  4,182)   DRY(  4,183)   DRY(  4,184)   DRY(  4,185)   
    DRY(  4,186)   DRY(  4,187)   DRY(  4,188)   DRY(  4,189)   DRY(  4,190)   
    DRY(  4,191)   DRY(  4,192)   DRY(  4,193)   DRY(  4,194)   DRY(  4,195)   
    DRY(  4,196)   DRY(  4,197)   DRY(  4,198)   DRY(  4,199)   DRY(  4,200)   
    DRY(  4,201)   DRY(  4,202)   DRY(  4,203)   DRY(  4,204)   DRY(  4,205)   
    DRY(  4,206)   DRY(  4,207)   DRY(  4,208)   DRY(  4,209)   DRY(  4,210)   
    DRY(  4,211)   DRY(  4,212)   DRY(  4,213)   DRY(  4,214)   DRY(  4,215)   
    DRY(  4,216)   DRY(  4,217)   DRY(  4,218)   DRY(  4,219)   DRY(  4,220)   
    DRY(  5,  1)   DRY(  5,  2)   DRY(  5,  3)   DRY(  5,  4)   DRY(  5,  5)   
    DRY(  5,  6)   DRY(  5,  7)   DRY(  5,  8)   DRY(  5,  9)   DRY(  5, 10)   
    DRY(  5, 11)   DRY(  5, 12)   DRY(  5, 13)   DRY(  5, 14)   DRY(  5, 15)   
    DRY(  5, 16)   DRY(  5, 17)   DRY(  5, 18)   DRY(  5, 19)   DRY(  5, 20)   
    DRY(  5, 21)   DRY(  5, 22)   DRY(  5, 23)   DRY(  5, 24)   DRY(  5, 25)   
    DRY(  5, 26)   DRY(  5, 27)   DRY(  5, 28)   DRY(  5, 29)   DRY(  5, 30)   
    DRY(  5, 31)   DRY(  5, 32)   DRY(  5, 33)   DRY(  5, 34)   DRY(  5, 35)   
    DRY(  5, 36)   DRY(  5, 37)   DRY(  5, 38)   DRY(  5, 39)   DRY(  5, 40)   
    DRY(  5, 41)   DRY(  5, 42)   DRY(  5, 43)   DRY(  5, 44)   DRY(  5, 45)   
    DRY(  5, 46)   DRY(  5, 47)   DRY(  5, 48)   DRY(  5, 49)   DRY(  5, 50)   
    DRY(  5, 51)   DRY(  5, 52)   DRY(  5, 53)   DRY(  5, 54)   DRY(  5, 55)   
    DRY(  5, 56)   DRY(  5, 57)   DRY(  5, 58)   DRY(  5, 59)   DRY(  5, 60)   
    DRY(  5, 61)   DRY(  5, 62)   DRY(  5, 63)   DRY(  5, 64)   DRY(  5, 65)   
    DRY(  5, 66)   DRY(  5, 67)   DRY(  5, 68)   DRY(  5, 69)   DRY(  5, 70)   
    DRY(  5, 71)   DRY(  5, 72)   DRY(  5, 73)   DRY(  5, 74)   DRY(  5, 75)   
    DRY(  5, 76)   DRY(  5, 77)   DRY(  5, 78)   DRY(  5, 79)   DRY(  5, 80)   
    DRY(  5, 81)   DRY(  5, 82)   DRY(  5, 83)   DRY(  5, 84)   DRY(  5, 85)   
    DRY(  5, 86)   DRY(  5, 87)   DRY(  5, 88)   DRY(  5, 89)   DRY(  5, 90)   
    DRY(  5, 91)   DRY(  5, 92)   DRY(  5, 93)   DRY(  5, 94)   DRY(  5, 95)   
    DRY(  5, 96)   DRY(  5, 97)   DRY(  5, 98)   DRY(  5, 99)   DRY(  5,100)   
    DRY(  5,101)   DRY(  5,102)   DRY(  5,103)   DRY(  5,104)   DRY(  5,105)   
    DRY(  5,106)   DRY(  5,107)   DRY(  5,108)   DRY(  5,109)   DRY(  5,110)   
    DRY(  5,111)   DRY(  5,112)   DRY(  5,113)   DRY(  5,114)   DRY(  5,115)   
    DRY(  5,116)   DRY(  5,117)   DRY(  5,118)   DRY(  5,119)   DRY(  5,120)   
    DRY(  5,121)   DRY(  5,122)   DRY(  5,123)   DRY(  5,124)   DRY(  5,125)   
    DRY(  5,126)   DRY(  5,127)   DRY(  5,128)   DRY(  5,129)   DRY(  5,130)   
    DRY(  5,131)   DRY(  5,132)   DRY(  5,133)   DRY(  5,134)   DRY(  5,135)   
    DRY(  5,136)   DRY(  5,137)   DRY(  5,138)   DRY(  5,139)   DRY(  5,140)   
    DRY(  5,141)   DRY(  5,142)   DRY(  5,143)   DRY(  5,144)   DRY(  5,145)   
    DRY(  5,146)   DRY(  5,147)   DRY(  5,148)   DRY(  5,149)   DRY(  5,150)   
    DRY(  5,151)   DRY(  5,152)   DRY(  5,153)   DRY(  5,154)   DRY(  5,155)   
    DRY(  5,156)   DRY(  5,157)   DRY(  5,158)   DRY(  5,159)   DRY(  5,160)   
    DRY(  5,161)   DRY(  5,162)   DRY(  5,163)   DRY(  5,164)   DRY(  5,165)   
    DRY(  5,166)   DRY(  5,167)   DRY(  5,168)   DRY(  5,169)   DRY(  5,170)   
    DRY(  5,171)   DRY(  5,172)   DRY(  5,173)   DRY(  5,174)   DRY(  5,175)   
    DRY(  5,176)   DRY(  5,177)   DRY(  5,178)   DRY(  5,179)   DRY(  5,180)   
    DRY(  5,181)   DRY(  5,182)   DRY(  5,183)   DRY(  5,184)   DRY(  5,185)   
    DRY(  5,186)   DRY(  5,187)   DRY(  5,188)   DRY(  5,189)   DRY(  5,190)   
    DRY(  5,191)   DRY(  5,192)   DRY(  5,193)   DRY(  5,194)   DRY(  5,195)   
    DRY(  5,196)   DRY(  5,197)   DRY(  5,198)   DRY(  5,199)   DRY(  5,200)   
    DRY(  5,201)   DRY(  5,202)   DRY(  5,203)   DRY(  5,204)   DRY(  5,205)   
    DRY(  5,206)   DRY(  5,207)   DRY(  5,208)   DRY(  5,209)   DRY(  5,210)   
    DRY(  5,211)   DRY(  5,212)   DRY(  5,213)   DRY(  5,214)   DRY(  5,215)   
    DRY(  5,216)   DRY(  5,217)   DRY(  5,218)   DRY(  5,219)   DRY(  5,220)   
    DRY(  6,  1)   DRY(  6,  2)   DRY(  6,  3)   DRY(  6,  4)   DRY(  6,  5)   
    DRY(  6,  6)   DRY(  6,  7)   DRY(  6,  8)   DRY(  6,  9)   DRY(  6, 10)   
    DRY(  6, 11)   DRY(  6, 12)   DRY(  6, 13)   DRY(  6, 14)   DRY(  6, 15)   
    DRY(  6, 16)   DRY(  6, 17)   DRY(  6, 18)   DRY(  6, 19)   DRY(  6, 20)   
    DRY(  6, 21)   DRY(  6, 22)   DRY(  6, 23)   DRY(  6, 24)   DRY(  6, 25)   
    DRY(  6, 26)   DRY(  6, 27)   DRY(  6, 28)   DRY(  6, 29)   DRY(  6, 30)   
    DRY(  6, 31)   DRY(  6, 32)   DRY(  6, 33)   DRY(  6, 34)   DRY(  6, 35)   
    DRY(  6, 36)   DRY(  6, 37)   DRY(  6, 38)   DRY(  6, 39)   DRY(  6, 40)   
    DRY(  6, 41)   DRY(  6, 42)   DRY(  6, 43)   DRY(  6, 44)   DRY(  6, 45)   
    DRY(  6, 46)   DRY(  6, 47)   DRY(  6, 48)   DRY(  6, 49)   DRY(  6, 50)   
    DRY(  6, 51)   DRY(  6, 52)   DRY(  6, 53)   DRY(  6, 54)   DRY(  6, 55)   
    DRY(  6, 56)   DRY(  6, 57)   DRY(  6, 58)   DRY(  6, 59)   DRY(  6, 60)   
    DRY(  6, 61)   DRY(  6, 62)   DRY(  6, 63)   DRY(  6, 64)   DRY(  6, 65)   
    DRY(  6, 66)   DRY(  6, 67)   DRY(  6, 68)   DRY(  6, 69)   DRY(  6, 70)   
    DRY(  6, 71)   DRY(  6, 72)   DRY(  6, 73)   DRY(  6, 74)   DRY(  6, 75)   
    DRY(  6, 76)   DRY(  6, 77)   DRY(  6, 78)   DRY(  6, 79)   DRY(  6, 80)   
    DRY(  6, 81)   DRY(  6, 82)   DRY(  6, 83)   DRY(  6, 84)   DRY(  6, 85)   
    DRY(  6, 86)   DRY(  6, 87)   DRY(  6, 88)   DRY(  6, 89)   DRY(  6, 90)   
    DRY(  6, 91)   DRY(  6, 92)   DRY(  6, 93)   DRY(  6, 94)   DRY(  6, 95)   
    DRY(  6, 96)   DRY(  6, 97)   DRY(  6, 98)   DRY(  6, 99)   DRY(  6,100)   
    DRY(  6,101)   DRY(  6,102)   DRY(  6,103)   DRY(  6,104)   DRY(  6,105)   
    DRY(  6,106)   DRY(  6,107)   DRY(  6,108)   DRY(  6,109)   DRY(  6,110)   
    DRY(  6,111)   DRY(  6,112)   DRY(  6,113)   DRY(  6,114)   DRY(  6,115)   
    DRY(  6,116)   DRY(  6,117)   DRY(  6,118)   DRY(  6,119)   DRY(  6,120)   
    DRY(  6,121)   DRY(  6,122)   DRY(  6,123)   DRY(  6,124)   DRY(  6,125)   
    DRY(  6,126)   DRY(  6,127)   DRY(  6,128)   DRY(  6,129)   DRY(  6,130)   
    DRY(  6,131)   DRY(  6,132)   DRY(  6,133)   DRY(  6,134)   DRY(  6,135)   
    DRY(  6,136)   DRY(  6,137)   DRY(  6,138)   DRY(  6,139)   DRY(  6,140)   
    DRY(  6,141)   DRY(  6,142)   DRY(  6,143)   DRY(  6,144)   DRY(  6,145)   
    DRY(  6,146)   DRY(  6,147)   DRY(  6,148)   DRY(  6,149)   DRY(  6,150)   
    DRY(  6,151)   DRY(  6,152)   DRY(  6,153)   DRY(  6,154)   DRY(  6,155)   
    DRY(  6,156)   DRY(  6,157)   DRY(  6,158)   DRY(  6,159)   DRY(  6,160)   
    DRY(  6,161)   DRY(  6,162)   DRY(  6,163)   DRY(  6,164)   DRY(  6,165)   
    DRY(  6,166)   DRY(  6,167)   DRY(  6,168)   DRY(  6,169)   DRY(  6,170)   
    DRY(  6,171)   DRY(  6,172)   DRY(  6,173)   DRY(  6,174)   DRY(  6,175)   
    DRY(  6,176)   DRY(  6,177)   DRY(  6,178)   DRY(  6,179)   DRY(  6,180)   
    DRY(  6,181)   DRY(  6,182)   DRY(  6,183)   DRY(  6,184)   DRY(  6,185)   
    DRY(  6,186)   DRY(  6,187)   DRY(  6,188)   DRY(  6,189)   DRY(  6,190)   
    DRY(  6,191)   DRY(  6,192)   DRY(  6,193)   DRY(  6,194)   DRY(  6,195)   
    DRY(  6,196)   DRY(  6,197)   DRY(  6,198)   DRY(  6,199)   DRY(  6,200)   
    DRY(  6,201)   DRY(  6,202)   DRY(  6,203)   DRY(  6,204)   DRY(  6,205)   
    DRY(  6,206)   DRY(  6,207)   DRY(  6,208)   DRY(  6,209)   DRY(  6,210)   
    DRY(  6,211)   DRY(  6,212)   DRY(  6,213)   DRY(  6,214)   DRY(  6,215)   
    DRY(  6,216)   DRY(  6,217)   DRY(  6,218)   DRY(  6,219)   DRY(  6,220)   
    DRY(  7,  1)   DRY(  7,  2)   DRY(  7,  3)   DRY(  7,  4)   DRY(  7,  5)   
    DRY(  7,  6)   DRY(  7,  7)   DRY(  7,  8)   DRY(  7,  9)   DRY(  7, 10)   
    DRY(  7, 11)   DRY(  7, 12)   DRY(  7, 13)   DRY(  7, 14)   DRY(  7, 15)   
    DRY(  7, 16)   DRY(  7, 17)   DRY(  7, 18)   DRY(  7, 19)   DRY(  7, 20)   
    DRY(  7, 21)   DRY(  7, 22)   DRY(  7, 23)   DRY(  7, 24)   DRY(  7, 25)   
    DRY(  7, 26)   DRY(  7, 27)   DRY(  7, 28)   DRY(  7, 29)   DRY(  7, 30)   
    DRY(  7, 31)   DRY(  7, 32)   DRY(  7, 33)   DRY(  7, 34)   DRY(  7, 35)   
    DRY(  7, 36)   DRY(  7, 37)   DRY(  7, 38)   DRY(  7, 39)   DRY(  7, 40)   
    DRY(  7, 41)   DRY(  7, 42)   DRY(  7, 43)   DRY(  7, 44)   DRY(  7, 45)   
    DRY(  7, 46)   DRY(  7, 47)   DRY(  7, 48)   DRY(  7, 49)   DRY(  7, 50)   
    DRY(  7, 51)   DRY(  7, 52)   DRY(  7, 53)   DRY(  7, 54)   DRY(  7, 55)   
    DRY(  7, 56)   DRY(  7, 57)   DRY(  7, 58)   DRY(  7, 59)   DRY(  7, 60)   
    DRY(  7, 61)   DRY(  7, 62)   DRY(  7, 63)   DRY(  7, 64)   DRY(  7, 65)   
    DRY(  7, 66)   DRY(  7, 67)   DRY(  7, 68)   DRY(  7, 69)   DRY(  7, 70)   
    DRY(  7, 71)   DRY(  7, 72)   DRY(  7, 73)   DRY(  7, 74)   DRY(  7, 75)   
    DRY(  7, 76)   DRY(  7, 77)   DRY(  7, 78)   DRY(  7, 79)   DRY(  7, 80)   
    DRY(  7, 81)   DRY(  7, 82)   DRY(  7, 83)   DRY(  7, 84)   DRY(  7, 85)   
    DRY(  7, 86)   DRY(  7, 87)   DRY(  7, 88)   DRY(  7, 89)   DRY(  7, 90)   
    DRY(  7, 91)   DRY(  7, 92)   DRY(  7, 93)   DRY(  7, 94)   DRY(  7, 95)   
    DRY(  7, 96)   DRY(  7, 97)   DRY(  7, 98)   DRY(  7, 99)   DRY(  7,100)   
    DRY(  7,101)   DRY(  7,102)   DRY(  7,103)   DRY(  7,104)   DRY(  7,105)   
    DRY(  7,106)   DRY(  7,107)   DRY(  7,108)   DRY(  7,109)   DRY(  7,110)   
    DRY(  7,111)   DRY(  7,112)   DRY(  7,113)   DRY(  7,114)   DRY(  7,115)   
    DRY(  7,116)   DRY(  7,117)   DRY(  7,118)   DRY(  7,119)   DRY(  7,120)   
    DRY(  7,121)   DRY(  7,122)   DRY(  7,123)   DRY(  7,124)   DRY(  7,125)   
    DRY(  7,126)   DRY(  7,127)   DRY(  7,128)   DRY(  7,129)   DRY(  7,130)   
    DRY(  7,131)   DRY(  7,132)   DRY(  7,133)   DRY(  7,134)   DRY(  7,135)   
    DRY(  7,136)   DRY(  7,137)   DRY(  7,138)   DRY(  7,139)   DRY(  7,140)   
    DRY(  7,141)   DRY(  7,142)   DRY(  7,143)   DRY(  7,144)   DRY(  7,145)   
    DRY(  7,146)   DRY(  7,147)   DRY(  7,148)   DRY(  7,149)   DRY(  7,150)   
    DRY(  7,151)   DRY(  7,152)   DRY(  7,153)   DRY(  7,154)   DRY(  7,155)   
    DRY(  7,156)   DRY(  7,157)   DRY(  7,158)   DRY(  7,159)   DRY(  7,160)   
    DRY(  7,161)   DRY(  7,162)   DRY(  7,163)   DRY(  7,164)   DRY(  7,165)   
    DRY(  7,166)   DRY(  7,167)   DRY(  7,168)   DRY(  7,169)   DRY(  7,170)   
    DRY(  7,171)   DRY(  7,172)   DRY(  7,173)   DRY(  7,174)   DRY(  7,175)   
    DRY(  7,176)   DRY(  7,177)   DRY(  7,178)   DRY(  7,179)   DRY(  7,180)   
    DRY(  7,181)   DRY(  7,182)   DRY(  7,183)   DRY(  7,184)   DRY(  7,185)   
    DRY(  7,186)   DRY(  7,187)   DRY(  7,188)   DRY(  7,189)   DRY(  7,190)   
    DRY(  7,191)   DRY(  7,192)   DRY(  7,193)   DRY(  7,194)   DRY(  7,195)   
    DRY(  7,196)   DRY(  7,197)   DRY(  7,198)   DRY(  7,199)   DRY(  7,200)   
    DRY(  7,201)   DRY(  7,202)   DRY(  7,203)   DRY(  7,204)   DRY(  7,205)   
    DRY(  7,206)   DRY(  7,207)   DRY(  7,208)   DRY(  7,209)   DRY(  7,210)   
    DRY(  7,211)   DRY(  7,212)   DRY(  7,213)   DRY(  7,214)   DRY(  7,215)   
    DRY(  7,216)   DRY(  7,217)   DRY(  7,218)   DRY(  7,219)   DRY(  7,220)   
    DRY(  8,  1)   DRY(  8,  2)   DRY(  8,  3)   DRY(  8,  4)   DRY(  8,  5)   
    DRY(  8,  6)   DRY(  8,  7)   DRY(  8,  8)   DRY(  8,  9)   DRY(  8, 10)   
    DRY(  8, 11)   DRY(  8, 12)   DRY(  8, 13)   DRY(  8, 14)   DRY(  8, 15)   
    DRY(  8, 16)   DRY(  8, 17)   DRY(  8, 18)   DRY(  8, 19)   DRY(  8, 20)   
    DRY(  8, 21)   DRY(  8, 22)   DRY(  8, 23)   DRY(  8, 24)   DRY(  8, 25)   
    DRY(  8, 26)   DRY(  8, 27)   DRY(  8, 28)   DRY(  8, 29)   DRY(  8, 30)   
    DRY(  8, 31)   DRY(  8, 32)   DRY(  8, 33)   DRY(  8, 34)   DRY(  8, 35)   
    DRY(  8, 36)   DRY(  8, 37)   DRY(  8, 38)   DRY(  8, 39)   DRY(  8, 40)   
    DRY(  8, 41)   DRY(  8, 42)   DRY(  8, 43)   DRY(  8, 44)   DRY(  8, 45)   
    DRY(  8, 46)   DRY(  8, 47)   DRY(  8, 48)   DRY(  8, 49)   DRY(  8, 50)   
    DRY(  8, 51)   DRY(  8, 52)   DRY(  8, 53)   DRY(  8, 54)   DRY(  8, 55)   
    DRY(  8, 56)   DRY(  8, 57)   DRY(  8, 58)   DRY(  8, 59)   DRY(  8, 60)   
    DRY(  8, 61)   DRY(  8, 62)   DRY(  8, 63)   DRY(  8, 64)   DRY(  8, 65)   
    DRY(  8, 66)   DRY(  8, 67)   DRY(  8, 68)   DRY(  8, 69)   DRY(  8, 70)   
    DRY(  8, 71)   DRY(  8, 72)   DRY(  8, 73)   DRY(  8, 74)   DRY(  8, 75)   
    DRY(  8, 76)   DRY(  8, 77)   DRY(  8, 78)   DRY(  8, 79)   DRY(  8, 80)   
    DRY(  8, 81)   DRY(  8, 82)   DRY(  8, 83)   DRY(  8, 84)   DRY(  8, 85)   
    DRY(  8, 86)   DRY(  8, 87)   DRY(  8, 88)   DRY(  8, 89)   DRY(  8, 90)   
    DRY(  8, 91)   DRY(  8, 92)   DRY(  8, 93)   DRY(  8, 94)   DRY(  8, 95)   
    DRY(  8, 96)   DRY(  8, 97)   DRY(  8, 98)   DRY(  8, 99)   DRY(  8,100)   
    DRY(  8,101)   DRY(  8,102)   DRY(  8,103)   DRY(  8,104)   DRY(  8,105)   
    DRY(  8,106)   DRY(  8,107)   DRY(  8,108)   DRY(  8,109)   DRY(  8,110)   
    DRY(  8,111)   DRY(  8,112)   DRY(  8,113)   DRY(  8,114)   DRY(  8,115)   
    DRY(  8,116)   DRY(  8,117)   DRY(  8,118)   DRY(  8,119)   DRY(  8,120)   
    DRY(  8,121)   DRY(  8,122)   DRY(  8,123)   DRY(  8,124)   DRY(  8,125)   
    DRY(  8,126)   DRY(  8,127)   DRY(  8,128)   DRY(  8,129)   DRY(  8,130)   
    DRY(  8,131)   DRY(  8,132)   DRY(  8,133)   DRY(  8,134)   DRY(  8,135)   
    DRY(  8,136)   DRY(  8,137)   DRY(  8,138)   DRY(  8,139)   DRY(  8,140)   
    DRY(  8,141)   DRY(  8,142)   DRY(  8,143)   DRY(  8,144)   DRY(  8,145)   
    DRY(  8,146)   DRY(  8,147)   DRY(  8,148)   DRY(  8,149)   DRY(  8,150)   
    DRY(  8,151)   DRY(  8,152)   DRY(  8,153)   DRY(  8,154)   DRY(  8,155)   
    DRY(  8,156)   DRY(  8,157)   DRY(  8,158)   DRY(  8,159)   DRY(  8,160)   
    DRY(  8,161)   DRY(  8,162)   DRY(  8,163)   DRY(  8,164)   DRY(  8,165)   
    DRY(  8,166)   DRY(  8,167)   DRY(  8,168)   DRY(  8,169)   DRY(  8,170)   
    DRY(  8,171)   DRY(  8,172)   DRY(  8,173)   DRY(  8,174)   DRY(  8,175)   
    DRY(  8,176)   DRY(  8,177)   DRY(  8,178)   DRY(  8,179)   DRY(  8,180)   
    DRY(  8,181)   DRY(  8,182)   DRY(  8,183)   DRY(  8,184)   DRY(  8,185)   
    DRY(  8,186)   DRY(  8,187)   DRY(  8,188)   DRY(  8,189)   DRY(  8,190)   
    DRY(  8,191)   DRY(  8,192)   DRY(  8,193)   DRY(  8,194)   DRY(  8,195)   
    DRY(  8,196)   DRY(  8,197)   DRY(  8,198)   DRY(  8,199)   DRY(  8,200)   
    DRY(  8,201)   DRY(  8,202)   DRY(  8,203)   DRY(  8,204)   DRY(  8,205)   
    DRY(  8,206)   DRY(  8,207)   DRY(  8,208)   DRY(  8,209)   DRY(  8,210)   
    DRY(  8,211)   DRY(  8,212)   DRY(  8,213)   DRY(  8,214)   DRY(  8,215)   
    DRY(  8,216)   DRY(  8,217)   DRY(  8,218)   DRY(  8,219)   DRY(  8,220)   
    DRY(  9,  1)   DRY(  9,  2)   DRY(  9,  3)   DRY(  9,  4)   DRY(  9,  5)   
    DRY(  9,  6)   DRY(  9,  7)   DRY(  9,  8)   DRY(  9,  9)   DRY(  9, 10)   
    DRY(  9, 11)   DRY(  9, 12)   DRY(  9, 13)   DRY(  9, 14)   DRY(  9, 15)   
    DRY(  9, 16)   DRY(  9, 17)   DRY(  9, 18)   DRY(  9, 19)   DRY(  9, 20)   
    DRY(  9, 21)   DRY(  9, 22)   DRY(  9, 23)   DRY(  9, 24)   DRY(  9, 25)   
    DRY(  9, 26)   DRY(  9, 27)   DRY(  9, 28)   DRY(  9, 29)   DRY(  9, 30)   
    DRY(  9, 31)   DRY(  9, 32)   DRY(  9, 33)   DRY(  9, 34)   DRY(  9, 35)   
    DRY(  9, 36)   DRY(  9, 37)   DRY(  9, 38)   DRY(  9, 39)   DRY(  9, 40)   
    DRY(  9, 41)   DRY(  9, 42)   DRY(  9, 43)   DRY(  9, 44)   DRY(  9, 45)   
    DRY(  9, 46)   DRY(  9, 47)   DRY(  9, 48)   DRY(  9, 49)   DRY(  9, 50)   
    DRY(  9, 51)   DRY(  9, 52)   DRY(  9, 53)   DRY(  9, 54)   DRY(  9, 55)   
    DRY(  9, 56)   DRY(  9, 57)   DRY(  9, 58)   DRY(  9, 59)   DRY(  9, 60)   
    DRY(  9, 61)   DRY(  9, 62)   DRY(  9, 63)   DRY(  9, 64)   DRY(  9, 65)   
    DRY(  9, 66)   DRY(  9, 67)   DRY(  9, 68)   DRY(  9, 69)   DRY(  9, 70)   
    DRY(  9, 71)   DRY(  9, 72)   DRY(  9, 73)   DRY(  9, 74)   DRY(  9, 75)   
    DRY(  9, 76)   DRY(  9, 77)   DRY(  9, 78)   DRY(  9, 79)   DRY(  9, 80)   
    DRY(  9, 81)   DRY(  9, 82)   DRY(  9, 83)   DRY(  9, 84)   DRY(  9, 85)   
    DRY(  9, 86)   DRY(  9, 87)   DRY(  9, 88)   DRY(  9, 89)   DRY(  9, 90)   
    DRY(  9, 91)   DRY(  9, 92)   DRY(  9, 93)   DRY(  9, 94)   DRY(  9, 95)   
    DRY(  9, 96)   DRY(  9, 97)   DRY(  9, 98)   DRY(  9, 99)   DRY(  9,100)   
    DRY(  9,101)   DRY(  9,102)   DRY(  9,103)   DRY(  9,104)   DRY(  9,105)   
    DRY(  9,106)   DRY(  9,107)   DRY(  9,108)   DRY(  9,109)   DRY(  9,110)   
    DRY(  9,111)   DRY(  9,112)   DRY(  9,113)   DRY(  9,114)   DRY(  9,115)   
    DRY(  9,116)   DRY(  9,117)   DRY(  9,118)   DRY(  9,119)   DRY(  9,120)   
    DRY(  9,121)   DRY(  9,122)   DRY(  9,123)   DRY(  9,124)   DRY(  9,125)   
    DRY(  9,126)   DRY(  9,127)   DRY(  9,128)   DRY(  9,129)   DRY(  9,130)   
    DRY(  9,131)   DRY(  9,132)   DRY(  9,133)   DRY(  9,134)   DRY(  9,135)   
    DRY(  9,136)   DRY(  9,137)   DRY(  9,138)   DRY(  9,139)   DRY(  9,140)   
    DRY(  9,141)   DRY(  9,142)   DRY(  9,143)   DRY(  9,144)   DRY(  9,145)   
    DRY(  9,146)   DRY(  9,147)   DRY(  9,148)   DRY(  9,149)   DRY(  9,150)   
    DRY(  9,151)   DRY(  9,152)   DRY(  9,153)   DRY(  9,154)   DRY(  9,155)   
    DRY(  9,156)   DRY(  9,157)   DRY(  9,158)   DRY(  9,159)   DRY(  9,160)   
    DRY(  9,161)   DRY(  9,162)   DRY(  9,163)   DRY(  9,164)   DRY(  9,165)   
    DRY(  9,166)   DRY(  9,167)   DRY(  9,168)   DRY(  9,169)   DRY(  9,170)   
    DRY(  9,171)   DRY(  9,172)   DRY(  9,173)   DRY(  9,174)   DRY(  9,175)   
    DRY(  9,176)   DRY(  9,177)   DRY(  9,178)   DRY(  9,179)   DRY(  9,180)   
    DRY(  9,181)   DRY(  9,182)   DRY(  9,183)   DRY(  9,184)   DRY(  9,185)   
    DRY(  9,186)   DRY(  9,187)   DRY(  9,188)   DRY(  9,189)   DRY(  9,190)   
    DRY(  9,191)   DRY(  9,192)   DRY(  9,193)   DRY(  9,194)   DRY(  9,195)   
    DRY(  9,196)   DRY(  9,197)   DRY(  9,198)   DRY(  9,199)   DRY(  9,200)   
    DRY(  9,201)   DRY(  9,202)   DRY(  9,203)   DRY(  9,204)   DRY(  9,205)   
    DRY(  9,206)   DRY(  9,207)   DRY(  9,208)   DRY(  9,209)   DRY(  9,210)   
    DRY(  9,211)   DRY(  9,212)   DRY(  9,213)   DRY(  9,214)   DRY(  9,215)   
    DRY(  9,216)   DRY(  9,217)   DRY(  9,218)   DRY(  9,219)   DRY(  9,220)   
    DRY( 10,  1)   DRY( 10,  2)   DRY( 10,  3)   DRY( 10,  4)   DRY( 10,  5)   
    DRY( 10,  6)   DRY( 10,  7)   DRY( 10,  8)   DRY( 10,  9)   DRY( 10, 10)   
    DRY( 10, 11)   DRY( 10, 12)   DRY( 10, 13)   DRY( 10, 14)   DRY( 10, 15)   
    DRY( 10, 16)   DRY( 10, 17)   DRY( 10, 18)   DRY( 10, 19)   DRY( 10, 20)   
    DRY( 10, 21)   DRY( 10, 22)   DRY( 10, 23)   DRY( 10, 24)   DRY( 10, 25)   
    DRY( 10, 26)   DRY( 10, 27)   DRY( 10, 28)   DRY( 10, 29)   DRY( 10, 30)   
    DRY( 10, 31)   DRY( 10, 32)   DRY( 10, 33)   DRY( 10, 34)   DRY( 10, 35)   
    DRY( 10, 36)   DRY( 10, 37)   DRY( 10, 38)   DRY( 10, 39)   DRY( 10, 40)   
    DRY( 10, 41)   DRY( 10, 42)   DRY( 10, 43)   DRY( 10, 44)   DRY( 10, 45)   
    DRY( 10, 46)   DRY( 10, 47)   DRY( 10, 48)   DRY( 10, 49)   DRY( 10, 50)   
    DRY( 10, 51)   DRY( 10, 52)   DRY( 10, 53)   DRY( 10, 54)   DRY( 10, 55)   
    DRY( 10, 56)   DRY( 10, 57)   DRY( 10, 58)   DRY( 10, 59)   DRY( 10, 60)   
    DRY( 10, 61)   DRY( 10, 62)   DRY( 10, 63)   DRY( 10, 64)   DRY( 10, 65)   
    DRY( 10, 66)   DRY( 10, 67)   DRY( 10, 68)   DRY( 10, 69)   DRY( 10, 70)   
    DRY( 10, 71)   DRY( 10, 72)   DRY( 10, 73)   DRY( 10, 74)   DRY( 10, 75)   
    DRY( 10, 76)   DRY( 10, 77)   DRY( 10, 78)   DRY( 10, 79)   DRY( 10, 80)   
    DRY( 10, 81)   DRY( 10, 82)   DRY( 10, 83)   DRY( 10, 84)   DRY( 10, 85)   
    DRY( 10, 86)   DRY( 10, 87)   DRY( 10, 88)   DRY( 10, 89)   DRY( 10, 90)   
    DRY( 10, 91)   DRY( 10, 92)   DRY( 10, 93)   DRY( 10, 94)   DRY( 10, 95)   
    DRY( 10, 96)   DRY( 10, 97)   DRY( 10, 98)   DRY( 10, 99)   DRY( 10,100)   
    DRY( 10,101)   DRY( 10,102)   DRY( 10,103)   DRY( 10,104)   DRY( 10,105)   
    DRY( 10,106)   DRY( 10,107)   DRY( 10,108)   DRY( 10,109)   DRY( 10,110)   
    DRY( 10,111)   DRY( 10,112)   DRY( 10,113)   DRY( 10,114)   DRY( 10,115)   
    DRY( 10,116)   DRY( 10,117)   DRY( 10,118)   DRY( 10,119)   DRY( 10,120)   
    DRY( 10,121)   DRY( 10,122)   DRY( 10,123)   DRY( 10,124)   DRY( 10,125)   
    DRY( 10,126)   DRY( 10,127)   DRY( 10,128)   DRY( 10,129)   DRY( 10,130)   
    DRY( 10,131)   DRY( 10,132)   DRY( 10,133)   DRY( 10,134)   DRY( 10,135)   
    DRY( 10,136)   DRY( 10,137)   DRY( 10,138)   DRY( 10,139)   DRY( 10,140)   
    DRY( 10,141)   DRY( 10,142)   DRY( 10,143)   DRY( 10,144)   DRY( 10,145)   
    DRY( 10,146)   DRY( 10,147)   DRY( 10,148)   DRY( 10,149)   DRY( 10,150)   
    DRY( 10,151)   DRY( 10,152)   DRY( 10,153)   DRY( 10,154)   DRY( 10,155)   
    DRY( 10,156)   DRY( 10,157)   DRY( 10,158)   DRY( 10,159)   DRY( 10,160)   
    DRY( 10,161)   DRY( 10,162)   DRY( 10,163)   DRY( 10,164)   DRY( 10,165)   
    DRY( 10,166)   DRY( 10,167)   DRY( 10,168)   DRY( 10,169)   DRY( 10,170)   
    DRY( 10,171)   DRY( 10,172)   DRY( 10,173)   DRY( 10,174)   DRY( 10,175)   
    DRY( 10,176)   DRY( 10,177)   DRY( 10,178)   DRY( 10,179)   DRY( 10,180)   
    DRY( 10,181)   DRY( 10,182)   DRY( 10,183)   DRY( 10,184)   DRY( 10,185)   
    DRY( 10,186)   DRY( 10,187)   DRY( 10,188)   DRY( 10,189)   DRY( 10,190)   
    DRY( 10,191)   DRY( 10,192)   DRY( 10,193)   DRY( 10,194)   DRY( 10,195)   
    DRY( 10,196)   DRY( 10,197)   DRY( 10,198)   DRY( 10,199)   DRY( 10,200)   
    DRY( 10,201)   DRY( 10,202)   DRY( 10,203)   DRY( 10,204)   DRY( 10,205)   
    DRY( 10,206)   DRY( 10,207)   DRY( 10,208)   DRY( 10,209)   DRY( 10,210)   
    DRY( 10,211)   DRY( 10,212)   DRY( 10,213)   DRY( 10,214)   DRY( 10,215)   
    DRY( 10,216)   DRY( 10,217)   DRY( 10,218)   DRY( 10,219)   DRY( 10,220)   
    DRY( 11,  1)   DRY( 11,  2)   DRY( 11,  3)   DRY( 11,  4)   DRY( 11,  5)   
    DRY( 11,  6)   DRY( 11,  7)   DRY( 11,  8)   DRY( 11,  9)   DRY( 11, 10)   
    DRY( 11, 11)   DRY( 11, 12)   DRY( 11, 13)   DRY( 11, 14)   DRY( 11, 15)   
    DRY( 11, 16)   DRY( 11, 17)   DRY( 11, 18)   DRY( 11, 19)   DRY( 11, 20)   
    DRY( 11, 21)   DRY( 11, 22)   DRY( 11, 23)   DRY( 11, 24)   DRY( 11, 25)   
    DRY( 11, 26)   DRY( 11, 27)   DRY( 11, 28)   DRY( 11, 29)   DRY( 11, 30)   
    DRY( 11, 31)   DRY( 11, 32)   DRY( 11, 33)   DRY( 11, 34)   DRY( 11, 35)   
    DRY( 11, 36)   DRY( 11, 37)   DRY( 11, 38)   DRY( 11, 39)   DRY( 11, 40)   
    DRY( 11, 41)   DRY( 11, 42)   DRY( 11, 43)   DRY( 11, 44)   DRY( 11, 45)   
    DRY( 11, 46)   DRY( 11, 47)   DRY( 11, 48)   DRY( 11, 49)   DRY( 11, 50)   
    DRY( 11, 51)   DRY( 11, 52)   DRY( 11, 53)   DRY( 11, 54)   DRY( 11, 55)   
    DRY( 11, 56)   DRY( 11, 57)   DRY( 11, 58)   DRY( 11, 59)   DRY( 11, 60)   
    DRY( 11, 61)   DRY( 11, 62)   DRY( 11, 63)   DRY( 11, 64)   DRY( 11, 65)   
    DRY( 11, 66)   DRY( 11, 67)   DRY( 11, 68)   DRY( 11, 69)   DRY( 11, 70)   
    DRY( 11, 71)   DRY( 11, 72)   DRY( 11, 73)   DRY( 11, 74)   DRY( 11, 75)   
    DRY( 11, 76)   DRY( 11, 77)   DRY( 11, 78)   DRY( 11, 79)   DRY( 11, 80)   
    DRY( 11, 81)   DRY( 11, 82)   DRY( 11, 83)   DRY( 11, 84)   DRY( 11, 85)   
    DRY( 11, 86)   DRY( 11, 87)   DRY( 11, 88)   DRY( 11, 89)   DRY( 11, 90)   
    DRY( 11, 91)   DRY( 11, 92)   DRY( 11, 93)   DRY( 11, 94)   DRY( 11, 95)   
    DRY( 11, 96)   DRY( 11, 97)   DRY( 11, 98)   DRY( 11, 99)   DRY( 11,100)   
    DRY( 11,101)   DRY( 11,102)   DRY( 11,103)   DRY( 11,104)   DRY( 11,105)   
    DRY( 11,106)   DRY( 11,107)   DRY( 11,108)   DRY( 11,109)   DRY( 11,110)   
    DRY( 11,111)   DRY( 11,112)   DRY( 11,113)   DRY( 11,114)   DRY( 11,115)   
    DRY( 11,116)   DRY( 11,117)   DRY( 11,118)   DRY( 11,119)   DRY( 11,120)   
    DRY( 11,121)   DRY( 11,122)   DRY( 11,123)   DRY( 11,124)   DRY( 11,125)   
    DRY( 11,126)   DRY( 11,127)   DRY( 11,128)   DRY( 11,129)   DRY( 11,130)   
    DRY( 11,131)   DRY( 11,132)   DRY( 11,133)   DRY( 11,134)   DRY( 11,135)   
    DRY( 11,136)   DRY( 11,137)   DRY( 11,138)   DRY( 11,139)   DRY( 11,140)   
    DRY( 11,141)   DRY( 11,142)   DRY( 11,143)   DRY( 11,144)   DRY( 11,145)   
    DRY( 11,146)   DRY( 11,147)   DRY( 11,148)   DRY( 11,149)   DRY( 11,150)   
    DRY( 11,151)   DRY( 11,152)   DRY( 11,153)   DRY( 11,154)   DRY( 11,155)   
    DRY( 11,156)   DRY( 11,157)   DRY( 11,158)   DRY( 11,159)   DRY( 11,160)   
    DRY( 11,161)   DRY( 11,162)   DRY( 11,163)   DRY( 11,164)   DRY( 11,165)   
    DRY( 11,166)   DRY( 11,167)   DRY( 11,168)   DRY( 11,169)   DRY( 11,170)   
    DRY( 11,171)   DRY( 11,172)   DRY( 11,173)   DRY( 11,174)   DRY( 11,175)   
    DRY( 11,176)   DRY( 11,177)   DRY( 11,178)   DRY( 11,179)   DRY( 11,180)   
    DRY( 11,181)   DRY( 11,182)   DRY( 11,183)   DRY( 11,184)   DRY( 11,185)   
    DRY( 11,186)   DRY( 11,187)   DRY( 11,188)   DRY( 11,189)   DRY( 11,190)   
    DRY( 11,191)   DRY( 11,192)   DRY( 11,193)   DRY( 11,194)   DRY( 11,195)   
    DRY( 11,196)   DRY( 11,197)   DRY( 11,198)   DRY( 11,199)   DRY( 11,200)   
    DRY( 11,201)   DRY( 11,202)   DRY( 11,203)   DRY( 11,204)   DRY( 11,205)   
    DRY( 11,206)   DRY( 11,207)   DRY( 11,208)   DRY( 11,209)   DRY( 11,210)   
    DRY( 11,211)   DRY( 11,212)   DRY( 11,213)   DRY( 11,214)   DRY( 11,215)   
    DRY( 11,216)   DRY( 11,217)   DRY( 11,218)   DRY( 11,219)   DRY( 11,220)   
    DRY( 12,  1)   DRY( 12,  2)   DRY( 12,  3)   DRY( 12,  4)   DRY( 12,  5)   
    DRY( 12,  6)   DRY( 12,  7)   DRY( 12,  8)   DRY( 12,  9)   DRY( 12, 10)   
    DRY( 12, 11)   DRY( 12, 12)   DRY( 12, 13)   DRY( 12, 14)   DRY( 12, 15)   
    DRY( 12, 16)   DRY( 12, 17)   DRY( 12, 18)   DRY( 12, 19)   DRY( 12, 20)   
    DRY( 12, 21)   DRY( 12, 22)   DRY( 12, 23)   DRY( 12, 24)   DRY( 12, 25)   
    DRY( 12, 26)   DRY( 12, 27)   DRY( 12, 28)   DRY( 12, 29)   DRY( 12, 30)   
    DRY( 12, 31)   DRY( 12, 32)   DRY( 12, 33)   DRY( 12, 34)   DRY( 12, 35)   
    DRY( 12, 36)   DRY( 12, 37)   DRY( 12, 38)   DRY( 12, 39)   DRY( 12, 40)   
    DRY( 12, 41)   DRY( 12, 42)   DRY( 12, 43)   DRY( 12, 44)   DRY( 12, 45)   
    DRY( 12, 46)   DRY( 12, 47)   DRY( 12, 48)   DRY( 12, 49)   DRY( 12, 50)   
    DRY( 12, 51)   DRY( 12, 52)   DRY( 12, 53)   DRY( 12, 54)   DRY( 12, 55)   
    DRY( 12, 56)   DRY( 12, 57)   DRY( 12, 58)   DRY( 12, 59)   DRY( 12, 60)   
    DRY( 12, 61)   DRY( 12, 62)   DRY( 12, 63)   DRY( 12, 64)   DRY( 12, 65)   
    DRY( 12, 66)   DRY( 12, 67)   DRY( 12, 68)   DRY( 12, 69)   DRY( 12, 70)   
    DRY( 12, 71)   DRY( 12, 72)   DRY( 12, 73)   DRY( 12, 74)   DRY( 12, 75)   
    DRY( 12, 76)   DRY( 12, 77)   DRY( 12, 78)   DRY( 12, 79)   DRY( 12, 80)   
    DRY( 12, 81)   DRY( 12, 82)   DRY( 12, 83)   DRY( 12, 84)   DRY( 12, 85)   
    DRY( 12, 86)   DRY( 12, 87)   DRY( 12, 88)   DRY( 12, 89)   DRY( 12, 90)   
    DRY( 12, 91)   DRY( 12, 92)   DRY( 12, 93)   DRY( 12, 94)   DRY( 12, 95)   
    DRY( 12, 96)   DRY( 12, 97)   DRY( 12, 98)   DRY( 12, 99)   DRY( 12,100)   
    DRY( 12,101)   DRY( 12,102)   DRY( 12,103)   DRY( 12,104)   DRY( 12,105)   
    DRY( 12,106)   DRY( 12,107)   DRY( 12,108)   DRY( 12,109)   DRY( 12,110)   
    DRY( 12,111)   DRY( 12,112)   DRY( 12,113)   DRY( 12,114)   DRY( 12,115)   
    DRY( 12,116)   DRY( 12,117)   DRY( 12,118)   DRY( 12,119)   DRY( 12,120)   
    DRY( 12,121)   DRY( 12,122)   DRY( 12,123)   DRY( 12,124)   DRY( 12,125)   
    DRY( 12,126)   DRY( 12,127)   DRY( 12,128)   DRY( 12,129)   DRY( 12,130)   
    DRY( 12,131)   DRY( 12,132)   DRY( 12,133)   DRY( 12,134)   DRY( 12,135)   
    DRY( 12,136)   DRY( 12,137)   DRY( 12,138)   DRY( 12,139)   DRY( 12,140)   
    DRY( 12,141)   DRY( 12,142)   DRY( 12,143)   DRY( 12,144)   DRY( 12,145)   
    DRY( 12,146)   DRY( 12,147)   DRY( 12,148)   DRY( 12,149)   DRY( 12,150)   
    DRY( 12,151)   DRY( 12,152)   DRY( 12,153)   DRY( 12,154)   DRY( 12,155)   
    DRY( 12,156)   DRY( 12,157)   DRY( 12,158)   DRY( 12,159)   DRY( 12,160)   
    DRY( 12,161)   DRY( 12,162)   DRY( 12,163)   DRY( 12,164)   DRY( 12,165)   
    DRY( 12,166)   DRY( 12,167)   DRY( 12,168)   DRY( 12,169)   DRY( 12,170)   
    DRY( 12,171)   DRY( 12,172)   DRY( 12,173)   DRY( 12,174)   DRY( 12,175)   
    DRY( 12,176)   DRY( 12,177)   DRY( 12,178)   DRY( 12,179)   DRY( 12,180)   
    DRY( 12,181)   DRY( 12,182)   DRY( 12,183)   DRY( 12,184)   DRY( 12,185)   
    DRY( 12,186)   DRY( 12,187)   DRY( 12,188)   DRY( 12,189)   DRY( 12,190)   
    DRY( 12,191)   DRY( 12,192)   DRY( 12,193)   DRY( 12,194)   DRY( 12,195)   
    DRY( 12,196)   DRY( 12,197)   DRY( 12,198)   DRY( 12,199)   DRY( 12,200)   
    DRY( 12,201)   DRY( 12,202)   DRY( 12,203)   DRY( 12,204)   DRY( 12,205)   
    DRY( 12,206)   DRY( 12,207)   DRY( 12,208)   DRY( 12,209)   DRY( 12,210)   
    DRY( 12,211)   DRY( 12,212)   DRY( 12,213)   DRY( 12,214)   DRY( 12,215)   
    DRY( 12,216)   DRY( 12,217)   DRY( 12,218)   DRY( 12,219)   DRY( 12,220)   
    DRY( 13,  1)   DRY( 13,  2)   DRY( 13,  3)   DRY( 13,  4)   DRY( 13,  5)   
    DRY( 13,  6)   DRY( 13,  7)   DRY( 13,  8)   DRY( 13,  9)   DRY( 13, 10)   
    DRY( 13, 11)   DRY( 13, 12)   DRY( 13, 13)   DRY( 13, 14)   DRY( 13, 15)   
    DRY( 13, 16)   DRY( 13, 17)   DRY( 13, 18)   DRY( 13, 19)   DRY( 13, 20)   
    DRY( 13, 21)   DRY( 13, 22)   DRY( 13, 23)   DRY( 13, 24)   DRY( 13, 25)   
    DRY( 13, 26)   DRY( 13, 27)   DRY( 13, 28)   DRY( 13, 29)   DRY( 13, 30)   
    DRY( 13, 31)   DRY( 13, 32)   DRY( 13, 33)   DRY( 13, 34)   DRY( 13, 35)   
    DRY( 13, 36)   DRY( 13, 37)   DRY( 13, 38)   DRY( 13, 39)   DRY( 13, 40)   
    DRY( 13, 41)   DRY( 13, 42)   DRY( 13, 43)   DRY( 13, 44)   DRY( 13, 45)   
    DRY( 13, 46)   DRY( 13, 47)   DRY( 13, 48)   DRY( 13, 49)   DRY( 13, 50)   
    DRY( 13, 51)   DRY( 13, 52)   DRY( 13, 53)   DRY( 13, 54)   DRY( 13, 55)   
    DRY( 13, 56)   DRY( 13, 57)   DRY( 13, 58)   DRY( 13, 59)   DRY( 13, 60)   
    DRY( 13, 61)   DRY( 13, 62)   DRY( 13, 63)   DRY( 13, 64)   DRY( 13, 65)   
    DRY( 13, 66)   DRY( 13, 67)   DRY( 13, 68)   DRY( 13, 69)   DRY( 13, 70)   
    DRY( 13, 71)   DRY( 13, 72)   DRY( 13, 73)   DRY( 13, 74)   DRY( 13, 75)   
    DRY( 13, 76)   DRY( 13, 77)   DRY( 13, 78)   DRY( 13, 79)   DRY( 13, 80)   
    DRY( 13, 81)   DRY( 13, 82)   DRY( 13, 83)   DRY( 13, 84)   DRY( 13, 85)   
    DRY( 13, 86)   DRY( 13, 87)   DRY( 13, 88)   DRY( 13, 89)   DRY( 13, 90)   
    DRY( 13, 91)   DRY( 13, 92)   DRY( 13, 93)   DRY( 13, 94)   DRY( 13, 95)   
    DRY( 13, 96)   DRY( 13, 97)   DRY( 13, 98)   DRY( 13, 99)   DRY( 13,100)   
    DRY( 13,101)   DRY( 13,102)   DRY( 13,103)   DRY( 13,104)   DRY( 13,105)   
    DRY( 13,106)   DRY( 13,107)   DRY( 13,108)   DRY( 13,109)   DRY( 13,110)   
    DRY( 13,111)   DRY( 13,112)   DRY( 13,113)   DRY( 13,114)   DRY( 13,115)   
    DRY( 13,116)   DRY( 13,117)   DRY( 13,118)   DRY( 13,119)   DRY( 13,120)   
    DRY( 13,121)   DRY( 13,122)   DRY( 13,123)   DRY( 13,124)   DRY( 13,125)   
    DRY( 13,126)   DRY( 13,127)   DRY( 13,128)   DRY( 13,129)   DRY( 13,130)   
    DRY( 13,131)   DRY( 13,132)   DRY( 13,133)   DRY( 13,134)   DRY( 13,135)   
    DRY( 13,136)   DRY( 13,137)   DRY( 13,138)   DRY( 13,139)   DRY( 13,140)   
    DRY( 13,141)   DRY( 13,142)   DRY( 13,143)   DRY( 13,144)   DRY( 13,145)   
    DRY( 13,146)   DRY( 13,147)   DRY( 13,148)   DRY( 13,149)   DRY( 13,150)   
    DRY( 13,151)   DRY( 13,152)   DRY( 13,153)   DRY( 13,154)   DRY( 13,155)   
    DRY( 13,156)   DRY( 13,157)   DRY( 13,158)   DRY( 13,159)   DRY( 13,160)   
    DRY( 13,161)   DRY( 13,162)   DRY( 13,163)   DRY( 13,164)   DRY( 13,165)   
    DRY( 13,166)   DRY( 13,167)   DRY( 13,168)   DRY( 13,169)   DRY( 13,170)   
    DRY( 13,171)   DRY( 13,172)   DRY( 13,173)   DRY( 13,174)   DRY( 13,175)   
    DRY( 13,176)   DRY( 13,177)   DRY( 13,178)   DRY( 13,179)   DRY( 13,180)   
    DRY( 13,181)   DRY( 13,182)   DRY( 13,183)   DRY( 13,184)   DRY( 13,185)   
    DRY( 13,186)   DRY( 13,187)   DRY( 13,188)   DRY( 13,189)   DRY( 13,190)   
    DRY( 13,191)   DRY( 13,192)   DRY( 13,193)   DRY( 13,194)   DRY( 13,195)   
    DRY( 13,196)   DRY( 13,197)   DRY( 13,198)   DRY( 13,199)   DRY( 13,200)   
    DRY( 13,201)   DRY( 13,202)   DRY( 13,203)   DRY( 13,204)   DRY( 13,205)   
    DRY( 13,206)   DRY( 13,207)   DRY( 13,208)   DRY( 13,209)   DRY( 13,210)   
    DRY( 13,211)   DRY( 13,212)   DRY( 13,213)   DRY( 13,214)   DRY( 13,215)   
    DRY( 13,216)   DRY( 13,217)   DRY( 13,218)   DRY( 13,219)   DRY( 13,220)   
    DRY( 14,  1)   DRY( 14,  2)   DRY( 14,  3)   DRY( 14,  4)   DRY( 14,  5)   
    DRY( 14,  6)   DRY( 14,  7)   DRY( 14,  8)   DRY( 14,  9)   DRY( 14, 10)   
    DRY( 14, 11)   DRY( 14, 12)   DRY( 14, 13)   DRY( 14, 14)   DRY( 14, 15)   
    DRY( 14, 16)   DRY( 14, 17)   DRY( 14, 18)   DRY( 14, 19)   DRY( 14, 20)   
    DRY( 14, 21)   DRY( 14, 22)   DRY( 14, 23)   DRY( 14, 24)   DRY( 14, 25)   
    DRY( 14, 26)   DRY( 14, 27)   DRY( 14, 28)   DRY( 14, 29)   DRY( 14, 30)   
    DRY( 14, 31)   DRY( 14, 32)   DRY( 14, 33)   DRY( 14, 34)   DRY( 14, 35)   
    DRY( 14, 36)   DRY( 14, 37)   DRY( 14, 38)   DRY( 14, 39)   DRY( 14, 40)   
    DRY( 14, 41)   DRY( 14, 42)   DRY( 14, 43)   DRY( 14, 44)   DRY( 14, 45)   
    DRY( 14, 46)   DRY( 14, 47)   DRY( 14, 48)   DRY( 14, 49)   DRY( 14, 50)   
    DRY( 14, 51)   DRY( 14, 52)   DRY( 14, 53)   DRY( 14, 54)   DRY( 14, 55)   
    DRY( 14, 56)   DRY( 14, 57)   DRY( 14, 58)   DRY( 14, 59)   DRY( 14, 60)   
    DRY( 14, 61)   DRY( 14, 62)   DRY( 14, 63)   DRY( 14, 64)   DRY( 14, 65)   
    DRY( 14, 66)   DRY( 14, 67)   DRY( 14, 68)   DRY( 14, 69)   DRY( 14, 70)   
    DRY( 14, 71)   DRY( 14, 72)   DRY( 14, 73)   DRY( 14, 74)   DRY( 14, 75)   
    DRY( 14, 76)   DRY( 14, 77)   DRY( 14, 78)   DRY( 14, 79)   DRY( 14, 80)   
    DRY( 14, 81)   DRY( 14, 82)   DRY( 14, 83)   DRY( 14, 84)   DRY( 14, 85)   
    DRY( 14, 86)   DRY( 14, 87)   DRY( 14, 88)   DRY( 14, 89)   DRY( 14, 90)   
    DRY( 14, 91)   DRY( 14, 92)   DRY( 14, 93)   DRY( 14, 94)   DRY( 14, 95)   
    DRY( 14, 96)   DRY( 14, 97)   DRY( 14, 98)   DRY( 14, 99)   DRY( 14,100)   
    DRY( 14,101)   DRY( 14,102)   DRY( 14,103)   DRY( 14,104)   DRY( 14,105)   
    DRY( 14,106)   DRY( 14,107)   DRY( 14,108)   DRY( 14,109)   DRY( 14,110)   
    DRY( 14,111)   DRY( 14,112)   DRY( 14,113)   DRY( 14,114)   DRY( 14,115)   
    DRY( 14,116)   DRY( 14,117)   DRY( 14,118)   DRY( 14,119)   DRY( 14,120)   
    DRY( 14,121)   DRY( 14,122)   DRY( 14,123)   DRY( 14,124)   DRY( 14,125)   
    DRY( 14,126)   DRY( 14,127)   DRY( 14,128)   DRY( 14,129)   DRY( 14,130)   
    DRY( 14,131)   DRY( 14,132)   DRY( 14,133)   DRY( 14,134)   DRY( 14,135)   
    DRY( 14,136)   DRY( 14,137)   DRY( 14,138)   DRY( 14,139)   DRY( 14,140)   
    DRY( 14,141)   DRY( 14,142)   DRY( 14,143)   DRY( 14,144)   DRY( 14,145)   
    DRY( 14,146)   DRY( 14,147)   DRY( 14,148)   DRY( 14,149)   DRY( 14,150)   
    DRY( 14,151)   DRY( 14,152)   DRY( 14,153)   DRY( 14,154)   DRY( 14,155)   
    DRY( 14,156)   DRY( 14,157)   DRY( 14,158)   DRY( 14,159)   DRY( 14,160)   
    DRY( 14,161)   DRY( 14,162)   DRY( 14,163)   DRY( 14,164)   DRY( 14,165)   
    DRY( 14,166)   DRY( 14,167)   DRY( 14,168)   DRY( 14,169)   DRY( 14,170)   
    DRY( 14,171)   DRY( 14,172)   DRY( 14,173)   DRY( 14,174)   DRY( 14,175)   
    DRY( 14,176)   DRY( 14,177)   DRY( 14,178)   DRY( 14,179)   DRY( 14,180)   
    DRY( 14,181)   DRY( 14,182)   DRY( 14,183)   DRY( 14,184)   DRY( 14,185)   
    DRY( 14,186)   DRY( 14,187)   DRY( 14,188)   DRY( 14,189)   DRY( 14,190)   
    DRY( 14,191)   DRY( 14,192)   DRY( 14,193)   DRY( 14,194)   DRY( 14,195)   
    DRY( 14,196)   DRY( 14,197)   DRY( 14,198)   DRY( 14,199)   DRY( 14,200)   
    DRY( 14,201)   DRY( 14,202)   DRY( 14,203)   DRY( 14,204)   DRY( 14,205)   
    DRY( 14,206)   DRY( 14,207)   DRY( 14,208)   DRY( 14,209)   DRY( 14,210)   
    DRY( 14,211)   DRY( 14,212)   DRY( 14,213)   DRY( 14,214)   DRY( 14,215)   
    DRY( 14,216)   DRY( 14,217)   DRY( 14,218)   DRY( 14,219)   DRY( 14,220)   
    DRY( 15,  1)   DRY( 15,  2)   DRY( 15,  3)   DRY( 15,  4)   DRY( 15,  5)   
    DRY( 15,  6)   DRY( 15,  7)   DRY( 15,  8)   DRY( 15,  9)   DRY( 15, 10)   
    DRY( 15, 11)   DRY( 15, 12)   DRY( 15, 13)   DRY( 15, 14)   DRY( 15, 15)   
    DRY( 15, 16)   DRY( 15, 17)   DRY( 15, 18)   DRY( 15, 19)   DRY( 15, 20)   
    DRY( 15, 21)   DRY( 15, 22)   DRY( 15, 23)   DRY( 15, 24)   DRY( 15, 25)   
    DRY( 15, 26)   DRY( 15, 27)   DRY( 15, 28)   DRY( 15, 29)   DRY( 15, 30)   
    DRY( 15, 31)   DRY( 15, 32)   DRY( 15, 33)   DRY( 15, 34)   DRY( 15, 35)   
    DRY( 15, 36)   DRY( 15, 37)   DRY( 15, 38)   DRY( 15, 39)   DRY( 15, 40)   
    DRY( 15, 41)   DRY( 15, 42)   DRY( 15, 43)   DRY( 15, 44)   DRY( 15, 45)   
    DRY( 15, 46)   DRY( 15, 47)   DRY( 15, 48)   DRY( 15, 49)   DRY( 15, 50)   
    DRY( 15, 51)   DRY( 15, 52)   DRY( 15, 53)   DRY( 15, 54)   DRY( 15, 55)   
    DRY( 15, 56)   DRY( 15, 57)   DRY( 15, 58)   DRY( 15, 59)   DRY( 15, 60)   
    DRY( 15, 61)   DRY( 15, 62)   DRY( 15, 63)   DRY( 15, 64)   DRY( 15, 65)   
    DRY( 15, 66)   DRY( 15, 67)   DRY( 15, 68)   DRY( 15, 69)   DRY( 15, 70)   
    DRY( 15, 71)   DRY( 15, 72)   DRY( 15, 73)   DRY( 15, 74)   DRY( 15, 75)   
    DRY( 15, 76)   DRY( 15, 77)   DRY( 15, 78)   DRY( 15, 79)   DRY( 15, 80)   
    DRY( 15, 81)   DRY( 15, 82)   DRY( 15, 83)   DRY( 15, 84)   DRY( 15, 85)   
    DRY( 15, 86)   DRY( 15, 87)   DRY( 15, 88)   DRY( 15, 89)   DRY( 15, 90)   
    DRY( 15, 91)   DRY( 15, 92)   DRY( 15, 93)   DRY( 15, 94)   DRY( 15, 95)   
    DRY( 15, 96)   DRY( 15, 97)   DRY( 15, 98)   DRY( 15, 99)   DRY( 15,100)   
    DRY( 15,101)   DRY( 15,102)   DRY( 15,103)   DRY( 15,104)   DRY( 15,105)   
    DRY( 15,106)   DRY( 15,107)   DRY( 15,108)   DRY( 15,109)   DRY( 15,110)   
    DRY( 15,111)   DRY( 15,112)   DRY( 15,113)   DRY( 15,114)   DRY( 15,115)   
    DRY( 15,116)   DRY( 15,117)   DRY( 15,118)   DRY( 15,119)   DRY( 15,120)   
    DRY( 15,121)   DRY( 15,122)   DRY( 15,123)   DRY( 15,124)   DRY( 15,125)   
    DRY( 15,126)   DRY( 15,127)   DRY( 15,128)   DRY( 15,129)   DRY( 15,130)   
    DRY( 15,131)   DRY( 15,132)   DRY( 15,133)   DRY( 15,134)   DRY( 15,135)   
    DRY( 15,136)   DRY( 15,137)   DRY( 15,138)   DRY( 15,139)   DRY( 15,140)   
    DRY( 15,141)   DRY( 15,142)   DRY( 15,143)   DRY( 15,144)   DRY( 15,145)   
    DRY( 15,146)   DRY( 15,147)   DRY( 15,148)   DRY( 15,149)   DRY( 15,150)   
    DRY( 15,151)   DRY( 15,152)   DRY( 15,153)   DRY( 15,154)   DRY( 15,155)   
    DRY( 15,156)   DRY( 15,157)   DRY( 15,158)   DRY( 15,159)   DRY( 15,160)   
    DRY( 15,161)   DRY( 15,162)   DRY( 15,163)   DRY( 15,164)   DRY( 15,165)   
    DRY( 15,166)   DRY( 15,167)   DRY( 15,168)   DRY( 15,169)   DRY( 15,170)   
    DRY( 15,171)   DRY( 15,172)   DRY( 15,173)   DRY( 15,174)   DRY( 15,175)   
    DRY( 15,176)   DRY( 15,177)   DRY( 15,178)   DRY( 15,179)   DRY( 15,180)   
    DRY( 15,181)   DRY( 15,182)   DRY( 15,183)   DRY( 15,184)   DRY( 15,185)   
    DRY( 15,186)   DRY( 15,187)   DRY( 15,188)   DRY( 15,189)   DRY( 15,190)   
    DRY( 15,191)   DRY( 15,192)   DRY( 15,193)   DRY( 15,194)   DRY( 15,195)   
    DRY( 15,196)   DRY( 15,197)   DRY( 15,198)   DRY( 15,199)   DRY( 15,200)   
    DRY( 15,201)   DRY( 15,202)   DRY( 15,203)   DRY( 15,204)   DRY( 15,205)   
    DRY( 15,206)   DRY( 15,207)   DRY( 15,208)   DRY( 15,209)   DRY( 15,210)   
    DRY( 15,211)   DRY( 15,212)   DRY( 15,213)   DRY( 15,214)   DRY( 15,215)   
    DRY( 15,216)   DRY( 15,217)   DRY( 15,218)   DRY( 15,219)   DRY( 15,220)   

 CELL CONVERSIONS FOR ITER.=  2  LAYER=  2  STEP=  1  PERIOD=   1   (ROW,COL)
    DRY(  3,  1)   DRY(  3,  2)   DRY(  3,  3)   DRY(  3,  4)   DRY(  3,  5)   
    DRY(  3,  6)   DRY(  3,  7)   DRY(  3,  8)   DRY(  3,  9)   DRY(  3, 10)   
    DRY(  3, 11)   DRY(  3, 12)   DRY(  3, 13)   DRY(  3, 14)   DRY(  3, 15)   
    DRY(  3, 16)   DRY(  3, 17)   DRY(  3, 18)   DRY(  3, 19)   DRY(  3, 20)   
    DRY(  3, 21)   DRY(  3, 22)   DRY(  3, 23)   DRY(  3, 24)   DRY(  3, 25)   
    DRY(  3, 26)   DRY(  3, 27)   DRY(  3, 28)   DRY(  3, 29)   DRY(  3, 30)   
    DRY(  3, 31)   DRY(  3, 32)   DRY(  3, 33)   DRY(  3, 34)   DRY(  3, 35)   
    DRY(  3, 36)   DRY(  3, 37)   DRY(  3, 38)   DRY(  3, 39)   DRY(  3, 40)   
    DRY(  3, 41)   DRY(  3, 42)   DRY(  3, 43)   DRY(  3, 44)   DRY(  3, 45)   
    DRY(  3, 46)   DRY(  3, 47)   DRY(  3, 48)   DRY(  3, 49)   DRY(  3, 50)   
    DRY(  3, 51)   DRY(  3, 52)   DRY(  3, 53)   DRY(  3, 54)   DRY(  3, 55)   
    DRY(  3, 56)   DRY(  3, 57)   DRY(  3, 58)   DRY(  3, 59)   DRY(  3, 60)   
    DRY(  3, 61)   DRY(  3, 62)   DRY(  3, 63)   DRY(  3, 64)   DRY(  3, 65)   
    DRY(  3, 66)   DRY(  3, 67)   DRY(  3, 68)   DRY(  3, 69)   DRY(  3, 70)   
    DRY(  3, 71)   DRY(  3, 72)   DRY(  3, 73)   DRY(  3, 74)   DRY(  3, 75)   
    DRY(  3, 76)   DRY(  3, 77)   DRY(  3, 78)   DRY(  3, 79)   DRY(  3, 80)   
    DRY(  3, 81)   DRY(  3, 82)   DRY(  3, 83)   DRY(  3, 84)   DRY(  3, 85)   
    DRY(  3, 86)   DRY(  3, 87)   DRY(  3, 88)   DRY(  3, 89)   DRY(  3, 90)   
    DRY(  3, 91)   DRY(  3, 92)   DRY(  3, 93)   DRY(  3, 94)   DRY(  3, 95)   
    DRY(  3, 96)   DRY(  3, 97)   DRY(  3, 98)   DRY(  3, 99)   DRY(  3,100)   
    DRY(  3,101)   DRY(  3,102)   DRY(  3,103)   DRY(  3,104)   DRY(  3,105)   
    DRY(  3,106)   DRY(  3,107)   DRY(  3,108)   DRY(  3,109)   DRY(  3,110)   
    DRY(  3,111)   DRY(  3,112)   DRY(  3,113)   DRY(  3,114)   DRY(  3,115)   
    DRY(  3,116)   DRY(  3,117)   DRY(  3,118)   DRY(  3,119)   DRY(  3,120)   
    DRY(  3,121)   DRY(  3,122)   DRY(  3,123)   DRY(  3,124)   DRY(  3,125)   
    DRY(  3,126)   DRY(  3,127)   DRY(  3,128)   DRY(  3,129)   DRY(  3,130)   
    DRY(  3,131)   DRY(  3,132)   DRY(  3,133)   DRY(  3,134)   DRY(  3,135)   
    DRY(  3,136)   DRY(  3,137)   DRY(  3,138)   DRY(  3,139)   DRY(  3,140)   
    DRY(  3,141)   DRY(  3,142)   DRY(  3,143)   DRY(  3,144)   DRY(  3,145)   
    DRY(  3,146)   DRY(  3,147)   DRY(  3,148)   DRY(  3,149)   DRY(  3,150)   
    DRY(  3,151)   DRY(  3,152)   DRY(  3,153)   DRY(  3,154)   DRY(  3,155)   
    DRY(  3,156)   DRY(  3,157)   DRY(  3,158)   DRY(  3,159)   DRY(  3,160)   
    DRY(  3,161)   DRY(  3,162)   DRY(  3,163)   DRY(  3,164)   DRY(  3,165)   
    DRY(  3,166)   DRY(  3,167)   DRY(  3,168)   DRY(  3,169)   DRY(  3,170)   
    DRY(  3,171)   DRY(  3,172)   DRY(  3,173)   DRY(  3,174)   DRY(  3,175)   
    DRY(  3,176)   DRY(  3,177)   DRY(  3,178)   DRY(  3,179)   DRY(  3,180)   
    DRY(  3,181)   DRY(  3,182)   DRY(  3,183)   DRY(  3,184)   DRY(  3,185)   
    DRY(  3,186)   DRY(  3,187)   DRY(  3,188)   DRY(  3,189)   DRY(  3,190)   
    DRY(  3,191)   DRY(  3,192)   DRY(  3,193)   DRY(  3,194)   DRY(  3,195)   
    DRY(  3,196)   DRY(  3,197)   DRY(  3,198)   DRY(  3,199)   DRY(  3,200)   
    DRY(  3,201)   DRY(  3,202)   DRY(  3,203)   DRY(  3,204)   DRY(  3,205)   
    DRY(  3,206)   DRY(  3,207)   DRY(  3,208)   DRY(  3,209)   DRY(  3,210)   
    DRY(  3,211)   DRY(  3,212)   DRY(  3,213)   DRY(  3,214)   DRY(  3,215)   
    DRY(  3,216)   DRY(  3,217)   DRY(  3,218)   DRY(  3,219)   DRY(  3,220)   
    DRY(  4,  1)   DRY(  4,  2)   DRY(  4,  3)   DRY(  4,  4)   DRY(  4,  5)   
    DRY(  4,  6)   DRY(  4,  7)   DRY(  4,  8)   DRY(  4,  9)   DRY(  4, 10)   
    DRY(  4, 11)   DRY(  4, 12)   DRY(  4, 13)   DRY(  4, 14)   DRY(  4, 15)   
    DRY(  4, 16)   DRY(  4, 17)   DRY(  4, 18)   DRY(  4, 19)   DRY(  4, 20)   
    DRY(  4, 21)   DRY(  4, 22)   DRY(  4, 23)   DRY(  4, 24)   DRY(  4, 25)   
    DRY(  4, 26)   DRY(  4, 27)   DRY(  4, 28)   DRY(  4, 29)   DRY(  4, 30)   
    DRY(  4, 31)   DRY(  4, 32)   DRY(  4, 33)   DRY(  4, 34)   DRY(  4, 35)   
    DRY(  4, 36)   DRY(  4, 37)   DRY(  4, 38)   DRY(  4, 39)   DRY(  4, 40)   
    DRY(  4, 41)   DRY(  4, 42)   DRY(  4, 43)   DRY(  4, 44)   DRY(  4, 45)   
    DRY(  4, 46)   DRY(  4, 47)   DRY(  4, 48)   DRY(  4, 49)   DRY(  4, 50)   
    DRY(  4, 51)   DRY(  4, 52)   DRY(  4, 53)   DRY(  4, 54)   DRY(  4, 55)   
    DRY(  4, 56)   DRY(  4, 57)   DRY(  4, 58)   DRY(  4, 59)   DRY(  4, 60)   
    DRY(  4, 61)   DRY(  4, 62)   DRY(  4, 63)   DRY(  4, 64)   DRY(  4, 65)   
    DRY(  4, 66)   DRY(  4, 67)   DRY(  4, 68)   DRY(  4, 69)   DRY(  4, 70)   
    DRY(  4, 71)   DRY(  4, 72)   DRY(  4, 73)   DRY(  4, 74)   DRY(  4, 75)   
    DRY(  4, 76)   DRY(  4, 77)   DRY(  4, 78)   DRY(  4, 79)   DRY(  4, 80)   
    DRY(  4, 81)   DRY(  4, 82)   DRY(  4, 83)   DRY(  4, 84)   DRY(  4, 85)   
    DRY(  4, 86)   DRY(  4, 87)   DRY(  4, 88)   DRY(  4, 89)   DRY(  4, 90)   
    DRY(  4, 91)   DRY(  4, 92)   DRY(  4, 93)   DRY(  4, 94)   DRY(  4, 95)   
    DRY(  4, 96)   DRY(  4, 97)   DRY(  4, 98)   DRY(  4, 99)   DRY(  4,100)   
    DRY(  4,101)   DRY(  4,102)   DRY(  4,103)   DRY(  4,104)   DRY(  4,105)   
    DRY(  4,106)   DRY(  4,107)   DRY(  4,108)   DRY(  4,109)   DRY(  4,110)   
    DRY(  4,111)   DRY(  4,112)   DRY(  4,113)   DRY(  4,114)   DRY(  4,115)   
    DRY(  4,116)   DRY(  4,117)   DRY(  4,118)   DRY(  4,119)   DRY(  4,120)   
    DRY(  4,121)   DRY(  4,122)   DRY(  4,123)   DRY(  4,124)   DRY(  4,125)   
    DRY(  4,126)   DRY(  4,127)   DRY(  4,128)   DRY(  4,129)   DRY(  4,130)   
    DRY(  4,131)   DRY(  4,132)   DRY(  4,133)   DRY(  4,134)   DRY(  4,135)   
    DRY(  4,136)   DRY(  4,137)   DRY(  4,138)   DRY(  4,139)   DRY(  4,140)   
    DRY(  4,141)   DRY(  4,142)   DRY(  4,143)   DRY(  4,144)   DRY(  4,145)   
    DRY(  4,146)   DRY(  4,147)   DRY(  4,148)   DRY(  4,149)   DRY(  4,150)   
    DRY(  4,151)   DRY(  4,152)   DRY(  4,153)   DRY(  4,154)   DRY(  4,155)   
    DRY(  4,156)   DRY(  4,157)   DRY(  4,158)   DRY(  4,159)   DRY(  4,160)   
    DRY(  4,161)   DRY(  4,162)   DRY(  4,163)   DRY(  4,164)   DRY(  4,165)   
    DRY(  4,166)   DRY(  4,167)   DRY(  4,168)   DRY(  4,169)   DRY(  4,170)   
    DRY(  4,171)   DRY(  4,172)   DRY(  4,173)   DRY(  4,174)   DRY(  4,175)   
    DRY(  4,176)   DRY(  4,177)   DRY(  4,178)   DRY(  4,179)   DRY(  4,180)   
    DRY(  4,181)   DRY(  4,182)   DRY(  4,183)   DRY(  4,184)   DRY(  4,185)   
    DRY(  4,186)   DRY(  4,187)   DRY(  4,188)   DRY(  4,189)   DRY(  4,190)   
    DRY(  4,191)   DRY(  4,192)   DRY(  4,193)   DRY(  4,194)   DRY(  4,195)   
    DRY(  4,196)   DRY(  4,197)   DRY(  4,198)   DRY(  4,199)   DRY(  4,200)   
    DRY(  4,201)   DRY(  4,202)   DRY(  4,203)   DRY(  4,204)   DRY(  4,205)   
    DRY(  4,206)   DRY(  4,207)   DRY(  4,208)   DRY(  4,209)   DRY(  4,210)   
    DRY(  4,211)   DRY(  4,212)   DRY(  4,213)   DRY(  4,214)   DRY(  4,215)   
    DRY(  4,216)   DRY(  4,217)   DRY(  4,218)   DRY(  4,219)   DRY(  4,220)   
    DRY(  5,  1)   DRY(  5,  2)   DRY(  5,  3)   DRY(  5,  4)   DRY(  5,  5)   
    DRY(  5,  6)   DRY(  5,  7)   DRY(  5,  8)   DRY(  5,  9)   DRY(  5, 10)   
    DRY(  5, 11)   DRY(  5, 12)   DRY(  5, 13)   DRY(  5, 14)   DRY(  5, 15)   
    DRY(  5, 16)   DRY(  5, 17)   DRY(  5, 18)   DRY(  5, 19)   DRY(  5, 20)   
    DRY(  5, 21)   DRY(  5, 22)   DRY(  5, 23)   DRY(  5, 24)   DRY(  5, 25)   
    DRY(  5, 26)   DRY(  5, 27)   DRY(  5, 28)   DRY(  5, 29)   DRY(  5, 30)   
    DRY(  5, 31)   DRY(  5, 32)   DRY(  5, 33)   DRY(  5, 34)   DRY(  5, 35)   
    DRY(  5, 36)   DRY(  5, 37)   DRY(  5, 38)   DRY(  5, 39)   DRY(  5, 40)   
    DRY(  5, 41)   DRY(  5, 42)   DRY(  5, 43)   DRY(  5, 44)   DRY(  5, 45)   
    DRY(  5, 46)   DRY(  5, 47)   DRY(  5, 48)   DRY(  5, 49)   DRY(  5, 50)   
    DRY(  5, 51)   DRY(  5, 52)   DRY(  5, 53)   DRY(  5, 54)   DRY(  5, 55)   
    DRY(  5, 56)   DRY(  5, 57)   DRY(  5, 58)   DRY(  5, 59)   DRY(  5, 60)   
    DRY(  5, 61)   DRY(  5, 62)   DRY(  5, 63)   DRY(  5, 64)   DRY(  5, 65)   
    DRY(  5, 66)   DRY(  5, 67)   DRY(  5, 68)   DRY(  5, 69)   DRY(  5, 70)   
    DRY(  5, 71)   DRY(  5, 72)   DRY(  5, 73)   DRY(  5, 74)   DRY(  5, 75)   
    DRY(  5, 76)   DRY(  5, 77)   DRY(  5, 78)   DRY(  5, 79)   DRY(  5, 80)   
    DRY(  5, 81)   DRY(  5, 82)   DRY(  5, 83)   DRY(  5, 84)   DRY(  5, 85)   
    DRY(  5, 86)   DRY(  5, 87)   DRY(  5, 88)   DRY(  5, 89)   DRY(  5, 90)   
    DRY(  5, 91)   DRY(  5, 92)   DRY(  5, 93)   DRY(  5, 94)   DRY(  5, 95)   
    DRY(  5, 96)   DRY(  5, 97)   DRY(  5, 98)   DRY(  5, 99)   DRY(  5,100)   
    DRY(  5,101)   DRY(  5,102)   DRY(  5,103)   DRY(  5,104)   DRY(  5,105)   
    DRY(  5,106)   DRY(  5,107)   DRY(  5,108)   DRY(  5,109)   DRY(  5,110)   
    DRY(  5,111)   DRY(  5,112)   DRY(  5,113)   DRY(  5,114)   DRY(  5,115)   
    DRY(  5,116)   DRY(  5,117)   DRY(  5,118)   DRY(  5,119)   DRY(  5,120)   
    DRY(  5,121)   DRY(  5,122)   DRY(  5,123)   DRY(  5,124)   DRY(  5,125)   
    DRY(  5,126)   DRY(  5,127)   DRY(  5,128)   DRY(  5,129)   DRY(  5,130)   
    DRY(  5,131)   DRY(  5,132)   DRY(  5,133)   DRY(  5,134)   DRY(  5,135)   
    DRY(  5,136)   DRY(  5,137)   DRY(  5,138)   DRY(  5,139)   DRY(  5,140)   
    DRY(  5,141)   DRY(  5,142)   DRY(  5,143)   DRY(  5,144)   DRY(  5,145)   
    DRY(  5,146)   DRY(  5,147)   DRY(  5,148)   DRY(  5,149)   DRY(  5,150)   
    DRY(  5,151)   DRY(  5,152)   DRY(  5,153)   DRY(  5,154)   DRY(  5,155)   
    DRY(  5,156)   DRY(  5,157)   DRY(  5,158)   DRY(  5,159)   DRY(  5,160)   
    DRY(  5,161)   DRY(  5,162)   DRY(  5,163)   DRY(  5,164)   DRY(  5,165)   
    DRY(  5,166)   DRY(  5,167)   DRY(  5,168)   DRY(  5,169)   DRY(  5,170)   
    DRY(  5,171)   DRY(  5,172)   DRY(  5,173)   DRY(  5,174)   DRY(  5,175)   
    DRY(  5,176)   DRY(  5,177)   DRY(  5,178)   DRY(  5,179)   DRY(  5,180)   
    DRY(  5,181)   DRY(  5,182)   DRY(  5,183)   DRY(  5,184)   DRY(  5,185)   
    DRY(  5,186)   DRY(  5,187)   DRY(  5,188)   DRY(  5,189)   DRY(  5,190)   
    DRY(  5,191)   DRY(  5,192)   DRY(  5,193)   DRY(  5,194)   DRY(  5,195)   
    DRY(  5,196)   DRY(  5,197)   DRY(  5,198)   DRY(  5,199)   DRY(  5,200)   
    DRY(  5,201)   DRY(  5,202)   DRY(  5,203)   DRY(  5,204)   DRY(  5,205)   
    DRY(  5,206)   DRY(  5,207)   DRY(  5,208)   DRY(  5,209)   DRY(  5,210)   
    DRY(  5,211)   DRY(  5,212)   DRY(  5,213)   DRY(  5,214)   DRY(  5,215)   
    DRY(  5,216)   DRY(  5,217)   DRY(  5,218)   DRY(  5,219)   DRY(  5,220)   
    DRY(  6,  1)   DRY(  6,  2)   DRY(  6,  3)   DRY(  6,  4)   DRY(  6,  5)   
    DRY(  6,  6)   DRY(  6,  7)   DRY(  6,  8)   DRY(  6,  9)   DRY(  6, 10)   
    DRY(  6, 11)   DRY(  6, 12)   DRY(  6, 13)   DRY(  6, 14)   DRY(  6, 15)   
    DRY(  6, 16)   DRY(  6, 17)   DRY(  6, 18)   DRY(  6, 19)   DRY(  6, 20)   
    DRY(  6, 21)   DRY(  6, 22)   DRY(  6, 23)   DRY(  6, 24)   DRY(  6, 25)   
    DRY(  6, 26)   DRY(  6, 27)   DRY(  6, 28)   DRY(  6, 29)   DRY(  6, 30)   
    DRY(  6, 31)   DRY(  6, 32)   DRY(  6, 33)   DRY(  6, 34)   DRY(  6, 35)   
    DRY(  6, 36)   DRY(  6, 37)   DRY(  6, 38)   DRY(  6, 39)   DRY(  6, 40)   
    DRY(  6, 41)   DRY(  6, 42)   DRY(  6, 43)   DRY(  6, 44)   DRY(  6, 45)   
    DRY(  6, 46)   DRY(  6, 47)   DRY(  6, 48)   DRY(  6, 49)   DRY(  6, 50)   
    DRY(  6, 51)   DRY(  6, 52)   DRY(  6, 53)   DRY(  6, 54)   DRY(  6, 55)   
    DRY(  6, 56)   DRY(  6, 57)   DRY(  6, 58)   DRY(  6, 59)   DRY(  6, 60)   
    DRY(  6, 61)   DRY(  6, 62)   DRY(  6, 63)   DRY(  6, 64)   DRY(  6, 65)   
    DRY(  6, 66)   DRY(  6, 67)   DRY(  6, 68)   DRY(  6, 69)   DRY(  6, 70)   
    DRY(  6, 71)   DRY(  6, 72)   DRY(  6, 73)   DRY(  6, 74)   DRY(  6, 75)   
    DRY(  6, 76)   DRY(  6, 77)   DRY(  6, 78)   DRY(  6, 79)   DRY(  6, 80)   
    DRY(  6, 81)   DRY(  6, 82)   DRY(  6, 83)   DRY(  6, 84)   DRY(  6, 85)   
    DRY(  6, 86)   DRY(  6, 87)   DRY(  6, 88)   DRY(  6, 89)   DRY(  6, 90)   
    DRY(  6, 91)   DRY(  6, 92)   DRY(  6, 93)   DRY(  6, 94)   DRY(  6, 95)   
    DRY(  6, 96)   DRY(  6, 97)   DRY(  6, 98)   DRY(  6, 99)   DRY(  6,100)   
    DRY(  6,101)   DRY(  6,102)   DRY(  6,103)   DRY(  6,104)   DRY(  6,105)   
    DRY(  6,106)   DRY(  6,107)   DRY(  6,108)   DRY(  6,109)   DRY(  6,110)   
    DRY(  6,111)   DRY(  6,112)   DRY(  6,113)   DRY(  6,114)   DRY(  6,115)   
    DRY(  6,116)   DRY(  6,117)   DRY(  6,118)   DRY(  6,119)   DRY(  6,120)   
    DRY(  6,121)   DRY(  6,122)   DRY(  6,123)   DRY(  6,124)   DRY(  6,125)   
    DRY(  6,126)   DRY(  6,127)   DRY(  6,128)   DRY(  6,129)   DRY(  6,130)   
    DRY(  6,131)   DRY(  6,132)   DRY(  6,133)   DRY(  6,134)   DRY(  6,135)   
    DRY(  6,136)   DRY(  6,137)   DRY(  6,138)   DRY(  6,139)   DRY(  6,140)   
    DRY(  6,141)   DRY(  6,142)   DRY(  6,143)   DRY(  6,144)   DRY(  6,145)   
    DRY(  6,146)   DRY(  6,147)   DRY(  6,148)   DRY(  6,149)   DRY(  6,150)   
    DRY(  6,151)   DRY(  6,152)   DRY(  6,153)   DRY(  6,154)   DRY(  6,155)   
    DRY(  6,156)   DRY(  6,157)   DRY(  6,158)   DRY(  6,159)   DRY(  6,160)   
    DRY(  6,161)   DRY(  6,162)   DRY(  6,163)   DRY(  6,164)   DRY(  6,165)   
    DRY(  6,166)   DRY(  6,167)   DRY(  6,168)   DRY(  6,169)   DRY(  6,170)   
    DRY(  6,171)   DRY(  6,172)   DRY(  6,173)   DRY(  6,174)   DRY(  6,175)   
    DRY(  6,176)   DRY(  6,177)   DRY(  6,178)   DRY(  6,179)   DRY(  6,180)   
    DRY(  6,181)   DRY(  6,182)   DRY(  6,183)   DRY(  6,184)   DRY(  6,185)   
    DRY(  6,186)   DRY(  6,187)   DRY(  6,188)   DRY(  6,189)   DRY(  6,190)   
    DRY(  6,191)   DRY(  6,192)   DRY(  6,193)   DRY(  6,194)   DRY(  6,195)   
    DRY(  6,196)   DRY(  6,197)   DRY(  6,198)   DRY(  6,199)   DRY(  6,200)   
    DRY(  6,201)   DRY(  6,202)   DRY(  6,203)   DRY(  6,204)   DRY(  6,205)   
    DRY(  6,206)   DRY(  6,207)   DRY(  6,208)   DRY(  6,209)   DRY(  6,210)   
    DRY(  6,211)   DRY(  6,212)   DRY(  6,213)   DRY(  6,214)   DRY(  6,215)   
    DRY(  6,216)   DRY(  6,217)   DRY(  6,218)   DRY(  6,219)   DRY(  6,220)   
    DRY(  7,  1)   DRY(  7,  2)   DRY(  7,  3)   DRY(  7,  4)   DRY(  7,  5)   
    DRY(  7,  6)   DRY(  7,  7)   DRY(  7,  8)   DRY(  7,  9)   DRY(  7, 10)   
    DRY(  7, 11)   DRY(  7, 12)   DRY(  7, 13)   DRY(  7, 14)   DRY(  7, 15)   
    DRY(  7, 16)   DRY(  7, 17)   DRY(  7, 18)   DRY(  7, 19)   DRY(  7, 20)   
    DRY(  7, 21)   DRY(  7, 22)   DRY(  7, 23)   DRY(  7, 24)   DRY(  7, 25)   
    DRY(  7, 26)   DRY(  7, 27)   DRY(  7, 28)   DRY(  7, 29)   DRY(  7, 30)   
    DRY(  7, 31)   DRY(  7, 32)   DRY(  7, 33)   DRY(  7, 34)   DRY(  7, 35)   
    DRY(  7, 36)   DRY(  7, 37)   DRY(  7, 38)   DRY(  7, 39)   DRY(  7, 40)   
    DRY(  7, 41)   DRY(  7, 42)   DRY(  7, 43)   DRY(  7, 44)   DRY(  7, 45)   
    DRY(  7, 46)   DRY(  7, 47)   DRY(  7, 48)   DRY(  7, 49)   DRY(  7, 50)   
    DRY(  7, 51)   DRY(  7, 52)   DRY(  7, 53)   DRY(  7, 54)   DRY(  7, 55)   
    DRY(  7, 56)   DRY(  7, 57)   DRY(  7, 58)   DRY(  7, 59)   DRY(  7, 60)   
    DRY(  7, 61)   DRY(  7, 62)   DRY(  7, 63)   DRY(  7, 64)   DRY(  7, 65)   
    DRY(  7, 66)   DRY(  7, 67)   DRY(  7, 68)   DRY(  7, 69)   DRY(  7, 70)   
    DRY(  7, 71)   DRY(  7, 72)   DRY(  7, 73)   DRY(  7, 74)   DRY(  7, 75)   
    DRY(  7, 76)   DRY(  7, 77)   DRY(  7, 78)   DRY(  7, 79)   DRY(  7, 80)   
    DRY(  7, 81)   DRY(  7, 82)   DRY(  7, 83)   DRY(  7, 84)   DRY(  7, 85)   
    DRY(  7, 86)   DRY(  7, 87)   DRY(  7, 88)   DRY(  7, 89)   DRY(  7, 90)   
    DRY(  7, 91)   DRY(  7, 92)   DRY(  7, 93)   DRY(  7, 94)   DRY(  7, 95)   
    DRY(  7, 96)   DRY(  7, 97)   DRY(  7, 98)   DRY(  7, 99)   DRY(  7,100)   
    DRY(  7,101)   DRY(  7,102)   DRY(  7,103)   DRY(  7,104)   DRY(  7,105)   
    DRY(  7,106)   DRY(  7,107)   DRY(  7,108)   DRY(  7,109)   DRY(  7,110)   
    DRY(  7,111)   DRY(  7,112)   DRY(  7,113)   DRY(  7,114)   DRY(  7,115)   
    DRY(  7,116)   DRY(  7,117)   DRY(  7,118)   DRY(  7,119)   DRY(  7,120)   
    DRY(  7,121)   DRY(  7,122)   DRY(  7,123)   DRY(  7,124)   DRY(  7,125)   
    DRY(  7,126)   DRY(  7,127)   DRY(  7,128)   DRY(  7,129)   DRY(  7,130)   
    DRY(  7,131)   DRY(  7,132)   DRY(  7,133)   DRY(  7,134)   DRY(  7,135)   
    DRY(  7,136)   DRY(  7,137)   DRY(  7,138)   DRY(  7,139)   DRY(  7,140)   
    DRY(  7,141)   DRY(  7,142)   DRY(  7,143)   DRY(  7,144)   DRY(  7,145)   
    DRY(  7,146)   DRY(  7,147)   DRY(  7,148)   DRY(  7,149)   DRY(  7,150)   
    DRY(  7,151)   DRY(  7,152)   DRY(  7,153)   DRY(  7,154)   DRY(  7,155)   
    DRY(  7,156)   DRY(  7,157)   DRY(  7,158)   DRY(  7,159)   DRY(  7,160)   
    DRY(  7,161)   DRY(  7,162)   DRY(  7,163)   DRY(  7,164)   DRY(  7,165)   
    DRY(  7,166)   DRY(  7,167)   DRY(  7,168)   DRY(  7,169)   DRY(  7,170)   
    DRY(  7,171)   DRY(  7,172)   DRY(  7,173)   DRY(  7,174)   DRY(  7,175)   
    DRY(  7,176)   DRY(  7,177)   DRY(  7,178)   DRY(  7,179)   DRY(  7,180)   
    DRY(  7,181)   DRY(  7,182)   DRY(  7,183)   DRY(  7,184)   DRY(  7,185)   
    DRY(  7,186)   DRY(  7,187)   DRY(  7,188)   DRY(  7,189)   DRY(  7,190)   
    DRY(  7,191)   DRY(  7,192)   DRY(  7,193)   DRY(  7,194)   DRY(  7,195)   
    DRY(  7,196)   DRY(  7,197)   DRY(  7,198)   DRY(  7,199)   DRY(  7,200)   
    DRY(  7,201)   DRY(  7,202)   DRY(  7,203)   DRY(  7,204)   DRY(  7,205)   
    DRY(  7,206)   DRY(  7,207)   DRY(  7,208)   DRY(  7,209)   DRY(  7,210)   
    DRY(  7,211)   DRY(  7,212)   DRY(  7,213)   DRY(  7,214)   DRY(  7,215)   
    DRY(  7,216)   DRY(  7,217)   DRY(  7,218)   DRY(  7,219)   DRY(  7,220)   
    DRY(  8,  1)   DRY(  8,  2)   DRY(  8,  3)   DRY(  8,  4)   DRY(  8,  5)   
    DRY(  8,  6)   DRY(  8,  7)   DRY(  8,  8)   DRY(  8,  9)   DRY(  8, 10)   
    DRY(  8, 11)   DRY(  8, 12)   DRY(  8, 13)   DRY(  8, 14)   DRY(  8, 15)   
    DRY(  8, 16)   DRY(  8, 17)   DRY(  8, 18)   DRY(  8, 19)   DRY(  8, 20)   
    DRY(  8, 21)   DRY(  8, 22)   DRY(  8, 23)   DRY(  8, 24)   DRY(  8, 25)   
    DRY(  8, 26)   DRY(  8, 27)   DRY(  8, 28)   DRY(  8, 29)   DRY(  8, 30)   
    DRY(  8, 31)   DRY(  8, 32)   DRY(  8, 33)   DRY(  8, 34)   DRY(  8, 35)   
    DRY(  8, 36)   DRY(  8, 37)   DRY(  8, 38)   DRY(  8, 39)   DRY(  8, 40)   
    DRY(  8, 41)   DRY(  8, 42)   DRY(  8, 43)   DRY(  8, 44)   DRY(  8, 45)   
    DRY(  8, 46)   DRY(  8, 47)   DRY(  8, 48)   DRY(  8, 49)   DRY(  8, 50)   
    DRY(  8, 51)   DRY(  8, 52)   DRY(  8, 53)   DRY(  8, 54)   DRY(  8, 55)   
    DRY(  8, 56)   DRY(  8, 57)   DRY(  8, 58)   DRY(  8, 59)   DRY(  8, 60)   
    DRY(  8, 61)   DRY(  8, 62)   DRY(  8, 63)   DRY(  8, 64)   DRY(  8, 65)   
    DRY(  8, 66)   DRY(  8, 67)   DRY(  8, 68)   DRY(  8, 69)   DRY(  8, 70)   
    DRY(  8, 71)   DRY(  8, 72)   DRY(  8, 73)   DRY(  8, 74)   DRY(  8, 75)   
    DRY(  8, 76)   DRY(  8, 77)   DRY(  8, 78)   DRY(  8, 79)   DRY(  8, 80)   
    DRY(  8, 81)   DRY(  8, 82)   DRY(  8, 83)   DRY(  8, 84)   DRY(  8, 85)   
    DRY(  8, 86)   DRY(  8, 87)   DRY(  8, 88)   DRY(  8, 89)   DRY(  8, 90)   
    DRY(  8, 91)   DRY(  8, 92)   DRY(  8, 93)   DRY(  8, 94)   DRY(  8, 95)   
    DRY(  8, 96)   DRY(  8, 97)   DRY(  8, 98)   DRY(  8, 99)   DRY(  8,100)   
    DRY(  8,101)   DRY(  8,102)   DRY(  8,103)   DRY(  8,104)   DRY(  8,105)   
    DRY(  8,106)   DRY(  8,107)   DRY(  8,108)   DRY(  8,109)   DRY(  8,110)   
    DRY(  8,111)   DRY(  8,112)   DRY(  8,113)   DRY(  8,114)   DRY(  8,115)   
    DRY(  8,116)   DRY(  8,117)   DRY(  8,118)   DRY(  8,119)   DRY(  8,120)   
    DRY(  8,121)   DRY(  8,122)   DRY(  8,123)   DRY(  8,124)   DRY(  8,125)   
    DRY(  8,126)   DRY(  8,127)   DRY(  8,128)   DRY(  8,129)   DRY(  8,130)   
    DRY(  8,131)   DRY(  8,132)   DRY(  8,133)   DRY(  8,134)   DRY(  8,135)   
    DRY(  8,136)   DRY(  8,137)   DRY(  8,138)   DRY(  8,139)   DRY(  8,140)   
    DRY(  8,141)   DRY(  8,142)   DRY(  8,143)   DRY(  8,144)   DRY(  8,145)   
    DRY(  8,146)   DRY(  8,147)   DRY(  8,148)   DRY(  8,149)   DRY(  8,150)   
    DRY(  8,151)   DRY(  8,152)   DRY(  8,153)   DRY(  8,154)   DRY(  8,155)   
    DRY(  8,156)   DRY(  8,157)   DRY(  8,158)   DRY(  8,159)   DRY(  8,160)   
    DRY(  8,161)   DRY(  8,162)   DRY(  8,163)   DRY(  8,164)   DRY(  8,165)   
    DRY(  8,166)   DRY(  8,167)   DRY(  8,168)   DRY(  8,169)   DRY(  8,170)   
    DRY(  8,171)   DRY(  8,172)   DRY(  8,173)   DRY(  8,174)   DRY(  8,175)   
    DRY(  8,176)   DRY(  8,177)   DRY(  8,178)   DRY(  8,179)   DRY(  8,180)   
    DRY(  8,181)   DRY(  8,182)   DRY(  8,183)   DRY(  8,184)   DRY(  8,185)   
    DRY(  8,186)   DRY(  8,187)   DRY(  8,188)   DRY(  8,189)   DRY(  8,190)   
    DRY(  8,191)   DRY(  8,192)   DRY(  8,193)   DRY(  8,194)   DRY(  8,195)   
    DRY(  8,196)   DRY(  8,197)   DRY(  8,198)   DRY(  8,199)   DRY(  8,200)   
    DRY(  8,201)   DRY(  8,202)   DRY(  8,203)   DRY(  8,204)   DRY(  8,205)   
    DRY(  8,206)   DRY(  8,207)   DRY(  8,208)   DRY(  8,209)   DRY(  8,210)   
    DRY(  8,211)   DRY(  8,212)   DRY(  8,213)   DRY(  8,214)   DRY(  8,215)   
    DRY(  8,216)   DRY(  8,217)   DRY(  8,218)   DRY(  8,219)   DRY(  8,220)   
    DRY(  9,  1)   DRY(  9,  2)   DRY(  9,  3)   DRY(  9,  4)   DRY(  9,  5)   
    DRY(  9,  6)   DRY(  9,  7)   DRY(  9,  8)   DRY(  9,  9)   DRY(  9, 10)   
    DRY(  9, 11)   DRY(  9, 12)   DRY(  9, 13)   DRY(  9, 14)   DRY(  9, 15)   
    DRY(  9, 16)   DRY(  9, 17)   DRY(  9, 18)   DRY(  9, 19)   DRY(  9, 20)   
    DRY(  9, 21)   DRY(  9, 22)   DRY(  9, 23)   DRY(  9, 24)   DRY(  9, 25)   
    DRY(  9, 26)   DRY(  9, 27)   DRY(  9, 28)   DRY(  9, 29)   DRY(  9, 30)   
    DRY(  9, 31)   DRY(  9, 32)   DRY(  9, 33)   DRY(  9, 34)   DRY(  9, 35)   
    DRY(  9, 36)   DRY(  9, 37)   DRY(  9, 38)   DRY(  9, 39)   DRY(  9, 40)   
    DRY(  9, 41)   DRY(  9, 42)   DRY(  9, 43)   DRY(  9, 44)   DRY(  9, 45)   
    DRY(  9, 46)   DRY(  9, 47)   DRY(  9, 48)   DRY(  9, 49)   DRY(  9, 50)   
    DRY(  9, 51)   DRY(  9, 52)   DRY(  9, 53)   DRY(  9, 54)   DRY(  9, 55)   
    DRY(  9, 56)   DRY(  9, 57)   DRY(  9, 58)   DRY(  9, 59)   DRY(  9, 60)   
    DRY(  9, 61)   DRY(  9, 62)   DRY(  9, 63)   DRY(  9, 64)   DRY(  9, 65)   
    DRY(  9, 66)   DRY(  9, 67)   DRY(  9, 68)   DRY(  9, 69)   DRY(  9, 70)   
    DRY(  9, 71)   DRY(  9, 72)   DRY(  9, 73)   DRY(  9, 74)   DRY(  9, 75)   
    DRY(  9, 76)   DRY(  9, 77)   DRY(  9, 78)   DRY(  9, 79)   DRY(  9, 80)   
    DRY(  9, 81)   DRY(  9, 82)   DRY(  9, 83)   DRY(  9, 84)   DRY(  9, 85)   
    DRY(  9, 86)   DRY(  9, 87)   DRY(  9, 88)   DRY(  9, 89)   DRY(  9, 90)   
    DRY(  9, 91)   DRY(  9, 92)   DRY(  9, 93)   DRY(  9, 94)   DRY(  9, 95)   
    DRY(  9, 96)   DRY(  9, 97)   DRY(  9, 98)   DRY(  9, 99)   DRY(  9,100)   
    DRY(  9,101)   DRY(  9,102)   DRY(  9,103)   DRY(  9,104)   DRY(  9,105)   
    DRY(  9,106)   DRY(  9,107)   DRY(  9,108)   DRY(  9,109)   DRY(  9,110)   
    DRY(  9,111)   DRY(  9,112)   DRY(  9,113)   DRY(  9,114)   DRY(  9,115)   
    DRY(  9,116)   DRY(  9,117)   DRY(  9,118)   DRY(  9,119)   DRY(  9,120)   
    DRY(  9,121)   DRY(  9,122)   DRY(  9,123)   DRY(  9,124)   DRY(  9,125)   
    DRY(  9,126)   DRY(  9,127)   DRY(  9,128)   DRY(  9,129)   DRY(  9,130)   
    DRY(  9,131)   DRY(  9,132)   DRY(  9,133)   DRY(  9,134)   DRY(  9,135)   
    DRY(  9,136)   DRY(  9,137)   DRY(  9,138)   DRY(  9,139)   DRY(  9,140)   
    DRY(  9,141)   DRY(  9,142)   DRY(  9,143)   DRY(  9,144)   DRY(  9,145)   
    DRY(  9,146)   DRY(  9,147)   DRY(  9,148)   DRY(  9,149)   DRY(  9,150)   
    DRY(  9,151)   DRY(  9,152)   DRY(  9,153)   DRY(  9,154)   DRY(  9,155)   
    DRY(  9,156)   DRY(  9,157)   DRY(  9,158)   DRY(  9,159)   DRY(  9,160)   
    DRY(  9,161)   DRY(  9,162)   DRY(  9,163)   DRY(  9,164)   DRY(  9,165)   
    DRY(  9,166)   DRY(  9,167)   DRY(  9,168)   DRY(  9,169)   DRY(  9,170)   
    DRY(  9,171)   DRY(  9,172)   DRY(  9,173)   DRY(  9,174)   DRY(  9,175)   
    DRY(  9,176)   DRY(  9,177)   DRY(  9,178)   DRY(  9,179)   DRY(  9,180)   
    DRY(  9,181)   DRY(  9,182)   DRY(  9,183)   DRY(  9,184)   DRY(  9,185)   
    DRY(  9,186)   DRY(  9,187)   DRY(  9,188)   DRY(  9,189)   DRY(  9,190)   
    DRY(  9,191)   DRY(  9,192)   DRY(  9,193)   DRY(  9,194)   DRY(  9,195)   
    DRY(  9,196)   DRY(  9,197)   DRY(  9,198)   DRY(  9,199)   DRY(  9,200)   
    DRY(  9,201)   DRY(  9,202)   DRY(  9,203)   DRY(  9,204)   DRY(  9,205)   
    DRY(  9,206)   DRY(  9,207)   DRY(  9,208)   DRY(  9,209)   DRY(  9,210)   
    DRY(  9,211)   DRY(  9,212)   DRY(  9,213)   DRY(  9,214)   DRY(  9,215)   
    DRY(  9,216)   DRY(  9,217)   DRY(  9,218)   DRY(  9,219)   DRY(  9,220)   
    DRY( 10,  1)   DRY( 10,  2)   DRY( 10,  3)   DRY( 10,  4)   DRY( 10,  5)   
    DRY( 10,  6)   DRY( 10,  7)   DRY( 10,  8)   DRY( 10,  9)   DRY( 10, 10)   
    DRY( 10, 11)   DRY( 10, 12)   DRY( 10, 13)   DRY( 10, 14)   DRY( 10, 15)   
    DRY( 10, 16)   DRY( 10, 17)   DRY( 10, 18)   DRY( 10, 19)   DRY( 10, 20)   
    DRY( 10, 21)   DRY( 10, 22)   DRY( 10, 23)   DRY( 10, 24)   DRY( 10, 25)   
    DRY( 10, 26)   DRY( 10, 27)   DRY( 10, 28)   DRY( 10, 29)   DRY( 10, 30)   
    DRY( 10, 31)   DRY( 10, 32)   DRY( 10, 33)   DRY( 10, 34)   DRY( 10, 35)   
    DRY( 10, 36)   DRY( 10, 37)   DRY( 10, 38)   DRY( 10, 39)   DRY( 10, 40)   
    DRY( 10, 41)   DRY( 10, 42)   DRY( 10, 43)   DRY( 10, 44)   DRY( 10, 45)   
    DRY( 10, 46)   DRY( 10, 47)   DRY( 10, 48)   DRY( 10, 49)   DRY( 10, 50)   
    DRY( 10, 51)   DRY( 10, 52)   DRY( 10, 53)   DRY( 10, 54)   DRY( 10, 55)   
    DRY( 10, 56)   DRY( 10, 57)   DRY( 10, 58)   DRY( 10, 59)   DRY( 10, 60)   
    DRY( 10, 61)   DRY( 10, 62)   DRY( 10, 63)   DRY( 10, 64)   DRY( 10, 65)   
    DRY( 10, 66)   DRY( 10, 67)   DRY( 10, 68)   DRY( 10, 69)   DRY( 10, 70)   
    DRY( 10, 71)   DRY( 10, 72)   DRY( 10, 73)   DRY( 10, 74)   DRY( 10, 75)   
    DRY( 10, 76)   DRY( 10, 77)   DRY( 10, 78)   DRY( 10, 79)   DRY( 10, 80)   
    DRY( 10, 81)   DRY( 10, 82)   DRY( 10, 83)   DRY( 10, 84)   DRY( 10, 85)   
    DRY( 10, 86)   DRY( 10, 87)   DRY( 10, 88)   DRY( 10, 89)   DRY( 10, 90)   
    DRY( 10, 91)   DRY( 10, 92)   DRY( 10, 93)   DRY( 10, 94)   DRY( 10, 95)   
    DRY( 10, 96)   DRY( 10, 97)   DRY( 10, 98)   DRY( 10, 99)   DRY( 10,100)   
    DRY( 10,101)   DRY( 10,102)   DRY( 10,103)   DRY( 10,104)   DRY( 10,105)   
    DRY( 10,106)   DRY( 10,107)   DRY( 10,108)   DRY( 10,109)   DRY( 10,110)   
    DRY( 10,111)   DRY( 10,112)   DRY( 10,113)   DRY( 10,114)   DRY( 10,115)   
    DRY( 10,116)   DRY( 10,117)   DRY( 10,118)   DRY( 10,119)   DRY( 10,120)   
    DRY( 10,121)   DRY( 10,122)   DRY( 10,123)   DRY( 10,124)   DRY( 10,125)   
    DRY( 10,126)   DRY( 10,127)   DRY( 10,128)   DRY( 10,129)   DRY( 10,130)   
    DRY( 10,131)   DRY( 10,132)   DRY( 10,133)   DRY( 10,134)   DRY( 10,135)   
    DRY( 10,136)   DRY( 10,137)   DRY( 10,138)   DRY( 10,139)   DRY( 10,140)   
    DRY( 10,141)   DRY( 10,142)   DRY( 10,143)   DRY( 10,144)   DRY( 10,145)   
    DRY( 10,146)   DRY( 10,147)   DRY( 10,148)   DRY( 10,149)   DRY( 10,150)   
    DRY( 10,151)   DRY( 10,152)   DRY( 10,153)   DRY( 10,154)   DRY( 10,155)   
    DRY( 10,156)   DRY( 10,157)   DRY( 10,158)   DRY( 10,159)   DRY( 10,160)   
    DRY( 10,161)   DRY( 10,162)   DRY( 10,163)   DRY( 10,164)   DRY( 10,165)   
    DRY( 10,166)   DRY( 10,167)   DRY( 10,168)   DRY( 10,169)   DRY( 10,170)   
    DRY( 10,171)   DRY( 10,172)   DRY( 10,173)   DRY( 10,174)   DRY( 10,175)   
    DRY( 10,176)   DRY( 10,177)   DRY( 10,178)   DRY( 10,179)   DRY( 10,180)   
    DRY( 10,181)   DRY( 10,182)   DRY( 10,183)   DRY( 10,184)   DRY( 10,185)   
    DRY( 10,186)   DRY( 10,187)   DRY( 10,188)   DRY( 10,189)   DRY( 10,190)   
    DRY( 10,191)   DRY( 10,192)   DRY( 10,193)   DRY( 10,194)   DRY( 10,195)   
    DRY( 10,196)   DRY( 10,197)   DRY( 10,198)   DRY( 10,199)   DRY( 10,200)   
    DRY( 10,201)   DRY( 10,202)   DRY( 10,203)   DRY( 10,204)   DRY( 10,205)   
    DRY( 10,206)   DRY( 10,207)   DRY( 10,208)   DRY( 10,209)   DRY( 10,210)   
    DRY( 10,211)   DRY( 10,212)   DRY( 10,213)   DRY( 10,214)   DRY( 10,215)   
    DRY( 10,216)   DRY( 10,217)   DRY( 10,218)   DRY( 10,219)   DRY( 10,220)   
    DRY( 11,  1)   DRY( 11,  2)   DRY( 11,  3)   DRY( 11,  4)   DRY( 11,  5)   
    DRY( 11,  6)   DRY( 11,  7)   DRY( 11,  8)   DRY( 11,  9)   DRY( 11, 10)   
    DRY( 11, 11)   DRY( 11, 12)   DRY( 11, 13)   DRY( 11, 14)   DRY( 11, 15)   
    DRY( 11, 16)   DRY( 11, 17)   DRY( 11, 18)   DRY( 11, 19)   DRY( 11, 20)   
    DRY( 11, 21)   DRY( 11, 22)   DRY( 11, 23)   DRY( 11, 24)   DRY( 11, 25)   
    DRY( 11, 26)   DRY( 11, 27)   DRY( 11, 28)   DRY( 11, 29)   DRY( 11, 30)   
    DRY( 11, 31)   DRY( 11, 32)   DRY( 11, 33)   DRY( 11, 34)   DRY( 11, 35)   
    DRY( 11, 36)   DRY( 11, 37)   DRY( 11, 38)   DRY( 11, 39)   DRY( 11, 40)   
    DRY( 11, 41)   DRY( 11, 42)   DRY( 11, 43)   DRY( 11, 44)   DRY( 11, 45)   
    DRY( 11, 46)   DRY( 11, 47)   DRY( 11, 48)   DRY( 11, 49)   DRY( 11, 50)   
    DRY( 11, 51)   DRY( 11, 52)   DRY( 11, 53)   DRY( 11, 54)   DRY( 11, 55)   
    DRY( 11, 56)   DRY( 11, 57)   DRY( 11, 58)   DRY( 11, 59)   DRY( 11, 60)   
    DRY( 11, 61)   DRY( 11, 62)   DRY( 11, 63)   DRY( 11, 64)   DRY( 11, 65)   
    DRY( 11, 66)   DRY( 11, 67)   DRY( 11, 68)   DRY( 11, 69)   DRY( 11, 70)   
    DRY( 11, 71)   DRY( 11, 72)   DRY( 11, 73)   DRY( 11, 74)   DRY( 11, 75)   
    DRY( 11, 76)   DRY( 11, 77)   DRY( 11, 78)   DRY( 11, 79)   DRY( 11, 80)   
    DRY( 11, 81)   DRY( 11, 82)   DRY( 11, 83)   DRY( 11, 84)   DRY( 11, 85)   
    DRY( 11, 86)   DRY( 11, 87)   DRY( 11, 88)   DRY( 11, 89)   DRY( 11, 90)   
    DRY( 11, 91)   DRY( 11, 92)   DRY( 11, 93)   DRY( 11, 94)   DRY( 11, 95)   
    DRY( 11, 96)   DRY( 11, 97)   DRY( 11, 98)   DRY( 11, 99)   DRY( 11,100)   
    DRY( 11,101)   DRY( 11,102)   DRY( 11,103)   DRY( 11,104)   DRY( 11,105)   
    DRY( 11,106)   DRY( 11,107)   DRY( 11,108)   DRY( 11,109)   DRY( 11,110)   
    DRY( 11,111)   DRY( 11,112)   DRY( 11,113)   DRY( 11,114)   DRY( 11,115)   
    DRY( 11,116)   DRY( 11,117)   DRY( 11,118)   DRY( 11,119)   DRY( 11,120)   
    DRY( 11,121)   DRY( 11,122)   DRY( 11,123)   DRY( 11,124)   DRY( 11,125)   
    DRY( 11,126)   DRY( 11,127)   DRY( 11,128)   DRY( 11,129)   DRY( 11,130)   
    DRY( 11,131)   DRY( 11,132)   DRY( 11,133)   DRY( 11,134)   DRY( 11,135)   
    DRY( 11,136)   DRY( 11,137)   DRY( 11,138)   DRY( 11,139)   DRY( 11,140)   
    DRY( 11,141)   DRY( 11,142)   DRY( 11,143)   DRY( 11,144)   DRY( 11,145)   
    DRY( 11,146)   DRY( 11,147)   DRY( 11,148)   DRY( 11,149)   DRY( 11,150)   
    DRY( 11,151)   DRY( 11,152)   DRY( 11,153)   DRY( 11,154)   DRY( 11,155)   
    DRY( 11,156)   DRY( 11,157)   DRY( 11,158)   DRY( 11,159)   DRY( 11,160)   
    DRY( 11,161)   DRY( 11,162)   DRY( 11,163)   DRY( 11,164)   DRY( 11,165)   
    DRY( 11,166)   DRY( 11,167)   DRY( 11,168)   DRY( 11,169)   DRY( 11,170)   
    DRY( 11,171)   DRY( 11,172)   DRY( 11,173)   DRY( 11,174)   DRY( 11,175)   
    DRY( 11,176)   DRY( 11,177)   DRY( 11,178)   DRY( 11,179)   DRY( 11,180)   
    DRY( 11,181)   DRY( 11,182)   DRY( 11,183)   DRY( 11,184)   DRY( 11,185)   
    DRY( 11,186)   DRY( 11,187)   DRY( 11,188)   DRY( 11,189)   DRY( 11,190)   
    DRY( 11,191)   DRY( 11,192)   DRY( 11,193)   DRY( 11,194)   DRY( 11,195)   
    DRY( 11,196)   DRY( 11,197)   DRY( 11,198)   DRY( 11,199)   DRY( 11,200)   
    DRY( 11,201)   DRY( 11,202)   DRY( 11,203)   DRY( 11,204)   DRY( 11,205)   
    DRY( 11,206)   DRY( 11,207)   DRY( 11,208)   DRY( 11,209)   DRY( 11,210)   
    DRY( 11,211)   DRY( 11,212)   DRY( 11,213)   DRY( 11,214)   DRY( 11,215)   
    DRY( 11,216)   DRY( 11,217)   DRY( 11,218)   DRY( 11,219)   DRY( 11,220)   
    DRY( 12,  1)   DRY( 12,  2)   DRY( 12,  3)   DRY( 12,  4)   DRY( 12,  5)   
    DRY( 12,  6)   DRY( 12,  7)   DRY( 12,  8)   DRY( 12,  9)   DRY( 12, 10)   
    DRY( 12, 11)   DRY( 12, 12)   DRY( 12, 13)   DRY( 12, 14)   DRY( 12, 15)   
    DRY( 12, 16)   DRY( 12, 17)   DRY( 12, 18)   DRY( 12, 19)   DRY( 12, 20)   
    DRY( 12, 21)   DRY( 12, 22)   DRY( 12, 23)   DRY( 12, 24)   DRY( 12, 25)   
    DRY( 12, 26)   DRY( 12, 27)   DRY( 12, 28)   DRY( 12, 29)   DRY( 12, 30)   
    DRY( 12, 31)   DRY( 12, 32)   DRY( 12, 33)   DRY( 12, 34)   DRY( 12, 35)   
    DRY( 12, 36)   DRY( 12, 37)   DRY( 12, 38)   DRY( 12, 39)   DRY( 12, 40)   
    DRY( 12, 41)   DRY( 12, 42)   DRY( 12, 43)   DRY( 12, 44)   DRY( 12, 45)   
    DRY( 12, 46)   DRY( 12, 47)   DRY( 12, 48)   DRY( 12, 49)   DRY( 12, 50)   
    DRY( 12, 51)   DRY( 12, 52)   DRY( 12, 53)   DRY( 12, 54)   DRY( 12, 55)   
    DRY( 12, 56)   DRY( 12, 57)   DRY( 12, 58)   DRY( 12, 59)   DRY( 12, 60)   
    DRY( 12, 61)   DRY( 12, 62)   DRY( 12, 63)   DRY( 12, 64)   DRY( 12, 65)   
    DRY( 12, 66)   DRY( 12, 67)   DRY( 12, 68)   DRY( 12, 69)   DRY( 12, 70)   
    DRY( 12, 71)   DRY( 12, 72)   DRY( 12, 73)   DRY( 12, 74)   DRY( 12, 75)   
    DRY( 12, 76)   DRY( 12, 77)   DRY( 12, 78)   DRY( 12, 79)   DRY( 12, 80)   
    DRY( 12, 81)   DRY( 12, 82)   DRY( 12, 83)   DRY( 12, 84)   DRY( 12, 85)   
    DRY( 12, 86)   DRY( 12, 87)   DRY( 12, 88)   DRY( 12, 89)   DRY( 12, 90)   
    DRY( 12, 91)   DRY( 12, 92)   DRY( 12, 93)   DRY( 12, 94)   DRY( 12, 95)   
    DRY( 12, 96)   DRY( 12, 97)   DRY( 12, 98)   DRY( 12, 99)   DRY( 12,100)   
    DRY( 12,101)   DRY( 12,102)   DRY( 12,103)   DRY( 12,104)   DRY( 12,105)   
    DRY( 12,106)   DRY( 12,107)   DRY( 12,108)   DRY( 12,109)   DRY( 12,110)   
    DRY( 12,111)   DRY( 12,112)   DRY( 12,113)   DRY( 12,114)   DRY( 12,115)   
    DRY( 12,116)   DRY( 12,117)   DRY( 12,118)   DRY( 12,119)   DRY( 12,120)   
    DRY( 12,121)   DRY( 12,122)   DRY( 12,123)   DRY( 12,124)   DRY( 12,125)   
    DRY( 12,126)   DRY( 12,127)   DRY( 12,128)   DRY( 12,129)   DRY( 12,130)   
    DRY( 12,131)   DRY( 12,132)   DRY( 12,133)   DRY( 12,134)   DRY( 12,135)   
    DRY( 12,136)   DRY( 12,137)   DRY( 12,138)   DRY( 12,139)   DRY( 12,140)   
    DRY( 12,141)   DRY( 12,142)   DRY( 12,143)   DRY( 12,144)   DRY( 12,145)   
    DRY( 12,146)   DRY( 12,147)   DRY( 12,148)   DRY( 12,149)   DRY( 12,150)   
    DRY( 12,151)   DRY( 12,152)   DRY( 12,153)   DRY( 12,154)   DRY( 12,155)   
    DRY( 12,156)   DRY( 12,157)   DRY( 12,158)   DRY( 12,159)   DRY( 12,160)   
    DRY( 12,161)   DRY( 12,162)   DRY( 12,163)   DRY( 12,164)   DRY( 12,165)   
    DRY( 12,166)   DRY( 12,167)   DRY( 12,168)   DRY( 12,169)   DRY( 12,170)   
    DRY( 12,171)   DRY( 12,172)   DRY( 12,173)   DRY( 12,174)   DRY( 12,175)   
    DRY( 12,176)   DRY( 12,177)   DRY( 12,178)   DRY( 12,179)   DRY( 12,180)   
    DRY( 12,181)   DRY( 12,182)   DRY( 12,183)   DRY( 12,184)   DRY( 12,185)   
    DRY( 12,186)   DRY( 12,187)   DRY( 12,188)   DRY( 12,189)   DRY( 12,190)   
    DRY( 12,191)   DRY( 12,192)   DRY( 12,193)   DRY( 12,194)   DRY( 12,195)   
    DRY( 12,196)   DRY( 12,197)   DRY( 12,198)   DRY( 12,199)   DRY( 12,200)   
    DRY( 12,201)   DRY( 12,202)   DRY( 12,203)   DRY( 12,204)   DRY( 12,205)   
    DRY( 12,206)   DRY( 12,207)   DRY( 12,208)   DRY( 12,209)   DRY( 12,210)   
    DRY( 12,211)   DRY( 12,212)   DRY( 12,213)   DRY( 12,214)   DRY( 12,215)   
    DRY( 12,216)   DRY( 12,217)   DRY( 12,218)   DRY( 12,219)   DRY( 12,220)   
    DRY( 13,  1)   DRY( 13,  2)   DRY( 13,  3)   DRY( 13,  4)   DRY( 13,  5)   
    DRY( 13,  6)   DRY( 13,  7)   DRY( 13,  8)   DRY( 13,  9)   DRY( 13, 10)   
    DRY( 13, 11)   DRY( 13, 12)   DRY( 13, 13)   DRY( 13, 14)   DRY( 13, 15)   
    DRY( 13, 16)   DRY( 13, 17)   DRY( 13, 18)   DRY( 13, 19)   DRY( 13, 20)   
    DRY( 13, 21)   DRY( 13, 22)   DRY( 13, 23)   DRY( 13, 24)   DRY( 13, 25)   
    DRY( 13, 26)   DRY( 13, 27)   DRY( 13, 28)   DRY( 13, 29)   DRY( 13, 30)   
    DRY( 13, 31)   DRY( 13, 32)   DRY( 13, 33)   DRY( 13, 34)   DRY( 13, 35)   
    DRY( 13, 36)   DRY( 13, 37)   DRY( 13, 38)   DRY( 13, 39)   DRY( 13, 40)   
    DRY( 13, 41)   DRY( 13, 42)   DRY( 13, 43)   DRY( 13, 44)   DRY( 13, 45)   
    DRY( 13, 46)   DRY( 13, 47)   DRY( 13, 48)   DRY( 13, 49)   DRY( 13, 50)   
    DRY( 13, 51)   DRY( 13, 52)   DRY( 13, 53)   DRY( 13, 54)   DRY( 13, 55)   
    DRY( 13, 56)   DRY( 13, 57)   DRY( 13, 58)   DRY( 13, 59)   DRY( 13, 60)   
    DRY( 13, 61)   DRY( 13, 62)   DRY( 13, 63)   DRY( 13, 64)   DRY( 13, 65)   
    DRY( 13, 66)   DRY( 13, 67)   DRY( 13, 68)   DRY( 13, 69)   DRY( 13, 70)   
    DRY( 13, 71)   DRY( 13, 72)   DRY( 13, 73)   DRY( 13, 74)   DRY( 13, 75)   
    DRY( 13, 76)   DRY( 13, 77)   DRY( 13, 78)   DRY( 13, 79)   DRY( 13, 80)   
    DRY( 13, 81)   DRY( 13, 82)   DRY( 13, 83)   DRY( 13, 84)   DRY( 13, 85)   
    DRY( 13, 86)   DRY( 13, 87)   DRY( 13, 88)   DRY( 13, 89)   DRY( 13, 90)   
    DRY( 13, 91)   DRY( 13, 92)   DRY( 13, 93)   DRY( 13, 94)   DRY( 13, 95)   
    DRY( 13, 96)   DRY( 13, 97)   DRY( 13, 98)   DRY( 13, 99)   DRY( 13,100)   
    DRY( 13,101)   DRY( 13,102)   DRY( 13,103)   DRY( 13,104)   DRY( 13,105)   
    DRY( 13,106)   DRY( 13,107)   DRY( 13,108)   DRY( 13,109)   DRY( 13,110)   
    DRY( 13,111)   DRY( 13,112)   DRY( 13,113)   DRY( 13,114)   DRY( 13,115)   
    DRY( 13,116)   DRY( 13,117)   DRY( 13,118)   DRY( 13,119)   DRY( 13,120)   
    DRY( 13,121)   DRY( 13,122)   DRY( 13,123)   DRY( 13,124)   DRY( 13,125)   
    DRY( 13,126)   DRY( 13,127)   DRY( 13,128)   DRY( 13,129)   DRY( 13,130)   
    DRY( 13,131)   DRY( 13,132)   DRY( 13,133)   DRY( 13,134)   DRY( 13,135)   
    DRY( 13,136)   DRY( 13,137)   DRY( 13,138)   DRY( 13,139)   DRY( 13,140)   
    DRY( 13,141)   DRY( 13,142)   DRY( 13,143)   DRY( 13,144)   DRY( 13,145)   
    DRY( 13,146)   DRY( 13,147)   DRY( 13,148)   DRY( 13,149)   DRY( 13,150)   
    DRY( 13,151)   DRY( 13,152)   DRY( 13,153)   DRY( 13,154)   DRY( 13,155)   
    DRY( 13,156)   DRY( 13,157)   DRY( 13,158)   DRY( 13,159)   DRY( 13,160)   
    DRY( 13,161)   DRY( 13,162)   DRY( 13,163)   DRY( 13,164)   DRY( 13,165)   
    DRY( 13,166)   DRY( 13,167)   DRY( 13,168)   DRY( 13,169)   DRY( 13,170)   
    DRY( 13,171)   DRY( 13,172)   DRY( 13,173)   DRY( 13,174)   DRY( 13,175)   
    DRY( 13,176)   DRY( 13,177)   DRY( 13,178)   DRY( 13,179)   DRY( 13,180)   
    DRY( 13,181)   DRY( 13,182)   DRY( 13,183)   DRY( 13,184)   DRY( 13,185)   
    DRY( 13,186)   DRY( 13,187)   DRY( 13,188)   DRY( 13,189)   DRY( 13,190)   
    DRY( 13,191)   DRY( 13,192)   DRY( 13,193)   DRY( 13,194)   DRY( 13,195)   
    DRY( 13,196)   DRY( 13,197)   DRY( 13,198)   DRY( 13,199)   DRY( 13,200)   
    DRY( 13,201)   DRY( 13,202)   DRY( 13,203)   DRY( 13,204)   DRY( 13,205)   
    DRY( 13,206)   DRY( 13,207)   DRY( 13,208)   DRY( 13,209)   DRY( 13,210)   
    DRY( 13,211)   DRY( 13,212)   DRY( 13,213)   DRY( 13,214)   DRY( 13,215)   
    DRY( 13,216)   DRY( 13,217)   DRY( 13,218)   DRY( 13,219)   DRY( 13,220)   
    DRY( 14,  1)   DRY( 14,  2)   DRY( 14,  3)   DRY( 14,  4)   DRY( 14,  5)   
    DRY( 14,  6)   DRY( 14,  7)   DRY( 14,  8)   DRY( 14,  9)   DRY( 14, 10)   
    DRY( 14, 11)   DRY( 14, 12)   DRY( 14, 13)   DRY( 14, 14)   DRY( 14, 15)   
    DRY( 14, 16)   DRY( 14, 17)   DRY( 14, 18)   DRY( 14, 19)   DRY( 14, 20)   
    DRY( 14, 21)   DRY( 14, 22)   DRY( 14, 23)   DRY( 14, 24)   DRY( 14, 25)   
    DRY( 14, 26)   DRY( 14, 27)   DRY( 14, 28)   DRY( 14, 29)   DRY( 14, 30)   
    DRY( 14, 31)   DRY( 14, 32)   DRY( 14, 33)   DRY( 14, 34)   DRY( 14, 35)   
    DRY( 14, 36)   DRY( 14, 37)   DRY( 14, 38)   DRY( 14, 39)   DRY( 14, 40)   
    DRY( 14, 41)   DRY( 14, 42)   DRY( 14, 43)   DRY( 14, 44)   DRY( 14, 45)   
    DRY( 14, 46)   DRY( 14, 47)   DRY( 14, 48)   DRY( 14, 49)   DRY( 14, 50)   
    DRY( 14, 51)   DRY( 14, 52)   DRY( 14, 53)   DRY( 14, 54)   DRY( 14, 55)   
    DRY( 14, 56)   DRY( 14, 57)   DRY( 14, 58)   DRY( 14, 59)   DRY( 14, 60)   
    DRY( 14, 61)   DRY( 14, 62)   DRY( 14, 63)   DRY( 14, 64)   DRY( 14, 65)   
    DRY( 14, 66)   DRY( 14, 67)   DRY( 14, 68)   DRY( 14, 69)   DRY( 14, 70)   
    DRY( 14, 71)   DRY( 14, 72)   DRY( 14, 73)   DRY( 14, 74)   DRY( 14, 75)   
    DRY( 14, 76)   DRY( 14, 77)   DRY( 14, 78)   DRY( 14, 79)   DRY( 14, 80)   
    DRY( 14, 81)   DRY( 14, 82)   DRY( 14, 83)   DRY( 14, 84)   DRY( 14, 85)   
    DRY( 14, 86)   DRY( 14, 87)   DRY( 14, 88)   DRY( 14, 89)   DRY( 14, 90)   
    DRY( 14, 91)   DRY( 14, 92)   DRY( 14, 93)   DRY( 14, 94)   DRY( 14, 95)   
    DRY( 14, 96)   DRY( 14, 97)   DRY( 14, 98)   DRY( 14, 99)   DRY( 14,100)   
    DRY( 14,101)   DRY( 14,102)   DRY( 14,103)   DRY( 14,104)   DRY( 14,105)   
    DRY( 14,106)   DRY( 14,107)   DRY( 14,108)   DRY( 14,109)   DRY( 14,110)   
    DRY( 14,111)   DRY( 14,112)   DRY( 14,113)   DRY( 14,114)   DRY( 14,115)   
    DRY( 14,116)   DRY( 14,117)   DRY( 14,118)   DRY( 14,119)   DRY( 14,120)   
    DRY( 14,121)   DRY( 14,122)   DRY( 14,123)   DRY( 14,124)   DRY( 14,125)   
    DRY( 14,126)   DRY( 14,127)   DRY( 14,128)   DRY( 14,129)   DRY( 14,130)   
    DRY( 14,131)   DRY( 14,132)   DRY( 14,133)   DRY( 14,134)   DRY( 14,135)   
    DRY( 14,136)   DRY( 14,137)   DRY( 14,138)   DRY( 14,139)   DRY( 14,140)   
    DRY( 14,141)   DRY( 14,142)   DRY( 14,143)   DRY( 14,144)   DRY( 14,145)   
    DRY( 14,146)   DRY( 14,147)   DRY( 14,148)   DRY( 14,149)   DRY( 14,150)   
    DRY( 14,151)   DRY( 14,152)   DRY( 14,153)   DRY( 14,154)   DRY( 14,155)   
    DRY( 14,156)   DRY( 14,157)   DRY( 14,158)   DRY( 14,159)   DRY( 14,160)   
    DRY( 14,161)   DRY( 14,162)   DRY( 14,163)   DRY( 14,164)   DRY( 14,165)   
    DRY( 14,166)   DRY( 14,167)   DRY( 14,168)   DRY( 14,169)   DRY( 14,170)   
    DRY( 14,171)   DRY( 14,172)   DRY( 14,173)   DRY( 14,174)   DRY( 14,175)   
    DRY( 14,176)   DRY( 14,177)   DRY( 14,178)   DRY( 14,179)   DRY( 14,180)   
    DRY( 14,181)   DRY( 14,182)   DRY( 14,183)   DRY( 14,184)   DRY( 14,185)   
    DRY( 14,186)   DRY( 14,187)   DRY( 14,188)   DRY( 14,189)   DRY( 14,190)   
    DRY( 14,191)   DRY( 14,192)   DRY( 14,193)   DRY( 14,194)   DRY( 14,195)   
    DRY( 14,196)   DRY( 14,197)   DRY( 14,198)   DRY( 14,199)   DRY( 14,200)   
    DRY( 14,201)   DRY( 14,202)   DRY( 14,203)   DRY( 14,204)   DRY( 14,205)   
    DRY( 14,206)   DRY( 14,207)   DRY( 14,208)   DRY( 14,209)   DRY( 14,210)   
    DRY( 14,211)   DRY( 14,212)   DRY( 14,213)   DRY( 14,214)   DRY( 14,215)   
    DRY( 14,216)   DRY( 14,217)   DRY( 14,218)   DRY( 14,219)   DRY( 14,220)   
    DRY( 15,  1)   DRY( 15,  2)   DRY( 15,  3)   DRY( 15,  4)   DRY( 15,  5)   
    DRY( 15,  6)   DRY( 15,  7)   DRY( 15,  8)   DRY( 15,  9)   DRY( 15, 10)   
    DRY( 15, 11)   DRY( 15, 12)   DRY( 15, 13)   DRY( 15, 14)   DRY( 15, 15)   
    DRY( 15, 16)   DRY( 15, 17)   DRY( 15, 18)   DRY( 15, 19)   DRY( 15, 20)   
    DRY( 15, 21)   DRY( 15, 22)   DRY( 15, 23)   DRY( 15, 24)   DRY( 15, 25)   
    DRY( 15, 26)   DRY( 15, 27)   DRY( 15, 28)   DRY( 15, 29)   DRY( 15, 30)   
    DRY( 15, 31)   DRY( 15, 32)   DRY( 15, 33)   DRY( 15, 34)   DRY( 15, 35)   
    DRY( 15, 36)   DRY( 15, 37)   DRY( 15, 38)   DRY( 15, 39)   DRY( 15, 40)   
    DRY( 15, 41)   DRY( 15, 42)   DRY( 15, 43)   DRY( 15, 44)   DRY( 15, 45)   
    DRY( 15, 46)   DRY( 15, 47)   DRY( 15, 48)   DRY( 15, 49)   DRY( 15, 50)   
    DRY( 15, 51)   DRY( 15, 52)   DRY( 15, 53)   DRY( 15, 54)   DRY( 15, 55)   
    DRY( 15, 56)   DRY( 15, 57)   DRY( 15, 58)   DRY( 15, 59)   DRY( 15, 60)   
    DRY( 15, 61)   DRY( 15, 62)   DRY( 15, 63)   DRY( 15, 64)   DRY( 15, 65)   
    DRY( 15, 66)   DRY( 15, 67)   DRY( 15, 68)   DRY( 15, 69)   DRY( 15, 70)   
    DRY( 15, 71)   DRY( 15, 72)   DRY( 15, 73)   DRY( 15, 74)   DRY( 15, 75)   
    DRY( 15, 76)   DRY( 15, 77)   DRY( 15, 78)   DRY( 15, 79)   DRY( 15, 80)   
    DRY( 15, 81)   DRY( 15, 82)   DRY( 15, 83)   DRY( 15, 84)   DRY( 15, 85)   
    DRY( 15, 86)   DRY( 15, 87)   DRY( 15, 88)   DRY( 15, 89)   DRY( 15, 90)   
    DRY( 15, 91)   DRY( 15, 92)   DRY( 15, 93)   DRY( 15, 94)   DRY( 15, 95)   
    DRY( 15, 96)   DRY( 15, 97)   DRY( 15, 98)   DRY( 15, 99)   DRY( 15,100)   
    DRY( 15,101)   DRY( 15,102)   DRY( 15,103)   DRY( 15,104)   DRY( 15,105)   
    DRY( 15,106)   DRY( 15,107)   DRY( 15,108)   DRY( 15,109)   DRY( 15,110)   
    DRY( 15,111)   DRY( 15,112)   DRY( 15,113)   DRY( 15,114)   DRY( 15,115)   
    DRY( 15,116)   DRY( 15,117)   DRY( 15,118)   DRY( 15,119)   DRY( 15,120)   
    DRY( 15,121)   DRY( 15,122)   DRY( 15,123)   DRY( 15,124)   DRY( 15,125)   
    DRY( 15,126)   DRY( 15,127)   DRY( 15,128)   DRY( 15,129)   DRY( 15,130)   
    DRY( 15,131)   DRY( 15,132)   DRY( 15,133)   DRY( 15,134)   DRY( 15,135)   
    DRY( 15,136)   DRY( 15,137)   DRY( 15,138)   DRY( 15,139)   DRY( 15,140)   
    DRY( 15,141)   DRY( 15,142)   DRY( 15,143)   DRY( 15,144)   DRY( 15,145)   
    DRY( 15,146)   DRY( 15,147)   DRY( 15,148)   DRY( 15,149)   DRY( 15,150)   
    DRY( 15,151)   DRY( 15,152)   DRY( 15,153)   DRY( 15,154)   DRY( 15,155)   
    DRY( 15,156)   DRY( 15,157)   DRY( 15,158)   DRY( 15,159)   DRY( 15,160)   
    DRY( 15,161)   DRY( 15,162)   DRY( 15,163)   DRY( 15,164)   DRY( 15,165)   
    DRY( 15,166)   DRY( 15,167)   DRY( 15,168)   DRY( 15,169)   DRY( 15,170)   
    DRY( 15,171)   DRY( 15,172)   DRY( 15,173)   DRY( 15,174)   DRY( 15,175)   
    DRY( 15,176)   DRY( 15,177)   DRY( 15,178)   DRY( 15,179)   DRY( 15,180)   
    DRY( 15,181)   DRY( 15,182)   DRY( 15,183)   DRY( 15,184)   DRY( 15,185)   
    DRY( 15,186)   DRY( 15,187)   DRY( 15,188)   DRY( 15,189)   DRY( 15,190)   
    DRY( 15,191)   DRY( 15,192)   DRY( 15,193)   DRY( 15,194)   DRY( 15,195)   
    DRY( 15,196)   DRY( 15,197)   DRY( 15,198)   DRY( 15,199)   DRY( 15,200)   
    DRY( 15,201)   DRY( 15,202)   DRY( 15,203)   DRY( 15,204)   DRY( 15,205)   
    DRY( 15,206)   DRY( 15,207)   DRY( 15,208)   DRY( 15,209)   DRY( 15,210)   
    DRY( 15,211)   DRY( 15,212)   DRY( 15,213)   DRY( 15,214)   DRY( 15,215)   
    DRY( 15,216)   DRY( 15,217)   DRY( 15,218)   DRY( 15,219)   DRY( 15,220)   

 CELL CONVERSIONS FOR ITER.=  2  LAYER=  3  STEP=  1  PERIOD=   1   (ROW,COL)
    DRY(  3,  1)   DRY(  3,  2)   DRY(  3,  3)   DRY(  3,  4)   DRY(  3,  5)   
    DRY(  3,  6)   DRY(  3,  7)   DRY(  3,  8)   DRY(  3,  9)   DRY(  3, 10)   
    DRY(  3, 11)   DRY(  3, 12)   DRY(  3, 13)   DRY(  3, 14)   DRY(  3, 15)   
    DRY(  3, 16)   DRY(  3, 17)   DRY(  3, 18)   DRY(  3, 19)   DRY(  3, 20)   
    DRY(  3, 21)   DRY(  3, 22)   DRY(  3, 23)   DRY(  3, 24)   DRY(  3, 25)   
    DRY(  3, 26)   DRY(  3, 27)   DRY(  3, 28)   DRY(  3, 29)   DRY(  3, 30)   
    DRY(  3, 31)   DRY(  3, 32)   DRY(  3, 33)   DRY(  3, 34)   DRY(  3, 35)   
    DRY(  3, 36)   DRY(  3, 37)   DRY(  3, 38)   DRY(  3, 39)   DRY(  3, 40)   
    DRY(  3, 41)   DRY(  3, 42)   DRY(  3, 43)   DRY(  3, 44)   DRY(  3, 45)   
    DRY(  3, 46)   DRY(  3, 47)   DRY(  3, 48)   DRY(  3, 49)   DRY(  3, 50)   
    DRY(  3, 51)   DRY(  3, 52)   DRY(  3, 53)   DRY(  3, 54)   DRY(  3, 55)   
    DRY(  3, 56)   DRY(  3, 57)   DRY(  3, 58)   DRY(  3, 59)   DRY(  3, 60)   
    DRY(  3, 61)   DRY(  3, 62)   DRY(  3, 63)   DRY(  3, 64)   DRY(  3, 65)   
    DRY(  3, 66)   DRY(  3, 67)   DRY(  3, 68)   DRY(  3, 69)   DRY(  3, 70)   
    DRY(  3, 71)   DRY(  3, 72)   DRY(  3, 73)   DRY(  3, 74)   DRY(  3, 75)   
    DRY(  3, 76)   DRY(  3, 77)   DRY(  3, 78)   DRY(  3, 79)   DRY(  3, 80)   
    DRY(  3, 81)   DRY(  3, 82)   DRY(  3, 83)   DRY(  3, 84)   DRY(  3, 85)   
    DRY(  3, 86)   DRY(  3, 87)   DRY(  3, 88)   DRY(  3, 89)   DRY(  3, 90)   
    DRY(  3, 91)   DRY(  3, 92)   DRY(  3, 93)   DRY(  3, 94)   DRY(  3, 95)   
    DRY(  3, 96)   DRY(  3, 97)   DRY(  3, 98)   DRY(  3, 99)   DRY(  3,100)   
    DRY(  3,101)   DRY(  3,102)   DRY(  3,103)   DRY(  3,104)   DRY(  3,105)   
    DRY(  3,106)   DRY(  3,107)   DRY(  3,108)   DRY(  3,109)   DRY(  3,110)   
    DRY(  3,111)   DRY(  3,112)   DRY(  3,113)   DRY(  3,114)   DRY(  3,115)   
    DRY(  3,116)   DRY(  3,117)   DRY(  3,118)   DRY(  3,119)   DRY(  3,120)   
    DRY(  3,121)   DRY(  3,122)   DRY(  3,123)   DRY(  3,124)   DRY(  3,125)   
    DRY(  3,126)   DRY(  3,127)   DRY(  3,128)   DRY(  3,129)   DRY(  3,130)   
    DRY(  3,131)   DRY(  3,132)   DRY(  3,133)   DRY(  3,134)   DRY(  3,135)   
    DRY(  3,136)   DRY(  3,137)   DRY(  3,138)   DRY(  3,139)   DRY(  3,140)   
    DRY(  3,141)   DRY(  3,142)   DRY(  3,143)   DRY(  3,144)   DRY(  3,145)   
    DRY(  3,146)   DRY(  3,147)   DRY(  3,148)   DRY(  3,149)   DRY(  3,150)   
    DRY(  3,151)   DRY(  3,152)   DRY(  3,153)   DRY(  3,154)   DRY(  3,155)   
    DRY(  3,156)   DRY(  3,157)   DRY(  3,158)   DRY(  3,159)   DRY(  3,160)   
    DRY(  3,161)   DRY(  3,162)   DRY(  3,163)   DRY(  3,164)   DRY(  3,165)   
    DRY(  3,166)   DRY(  3,167)   DRY(  3,168)   DRY(  3,169)   DRY(  3,170)   
    DRY(  3,171)   DRY(  3,172)   DRY(  3,173)   DRY(  3,174)   DRY(  3,175)   
    DRY(  3,176)   DRY(  3,177)   DRY(  3,178)   DRY(  3,179)   DRY(  3,180)   
    DRY(  3,181)   DRY(  3,182)   DRY(  3,183)   DRY(  3,184)   DRY(  3,185)   
    DRY(  3,186)   DRY(  3,187)   DRY(  3,188)   DRY(  3,189)   DRY(  3,190)   
    DRY(  3,191)   DRY(  3,192)   DRY(  3,193)   DRY(  3,194)   DRY(  3,195)   
    DRY(  3,196)   DRY(  3,197)   DRY(  3,198)   DRY(  3,199)   DRY(  3,200)   
    DRY(  3,201)   DRY(  3,202)   DRY(  3,203)   DRY(  3,204)   DRY(  3,205)   
    DRY(  3,206)   DRY(  3,207)   DRY(  3,208)   DRY(  3,209)   DRY(  3,210)   
    DRY(  3,211)   DRY(  3,212)   DRY(  3,213)   DRY(  3,214)   DRY(  3,215)   
    DRY(  3,216)   DRY(  3,217)   DRY(  3,218)   DRY(  3,219)   DRY(  3,220)   
    DRY(  4,  1)   DRY(  4,  2)   DRY(  4,  3)   DRY(  4,  4)   DRY(  4,  5)   
    DRY(  4,  6)   DRY(  4,  7)   DRY(  4,  8)   DRY(  4,  9)   DRY(  4, 10)   
    DRY(  4, 11)   DRY(  4, 12)   DRY(  4, 13)   DRY(  4, 14)   DRY(  4, 15)   
    DRY(  4, 16)   DRY(  4, 17)   DRY(  4, 18)   DRY(  4, 19)   DRY(  4, 20)   
    DRY(  4, 21)   DRY(  4, 22)   DRY(  4, 23)   DRY(  4, 24)   DRY(  4, 25)   
    DRY(  4, 26)   DRY(  4, 27)   DRY(  4, 28)   DRY(  4, 29)   DRY(  4, 30)   
    DRY(  4, 31)   DRY(  4, 32)   DRY(  4, 33)   DRY(  4, 34)   DRY(  4, 35)   
    DRY(  4, 36)   DRY(  4, 37)   DRY(  4, 38)   DRY(  4, 39)   DRY(  4, 40)   
    DRY(  4, 41)   DRY(  4, 42)   DRY(  4, 43)   DRY(  4, 44)   DRY(  4, 45)   
    DRY(  4, 46)   DRY(  4, 47)   DRY(  4, 48)   DRY(  4, 49)   DRY(  4, 50)   
    DRY(  4, 51)   DRY(  4, 52)   DRY(  4, 53)   DRY(  4, 54)   DRY(  4, 55)   
    DRY(  4, 56)   DRY(  4, 57)   DRY(  4, 58)   DRY(  4, 59)   DRY(  4, 60)   
    DRY(  4, 61)   DRY(  4, 62)   DRY(  4, 63)   DRY(  4, 64)   DRY(  4, 65)   
    DRY(  4, 66)   DRY(  4, 67)   DRY(  4, 68)   DRY(  4, 69)   DRY(  4, 70)   
    DRY(  4, 71)   DRY(  4, 72)   DRY(  4, 73)   DRY(  4, 74)   DRY(  4, 75)   
    DRY(  4, 76)   DRY(  4, 77)   DRY(  4, 78)   DRY(  4, 79)   DRY(  4, 80)   
    DRY(  4, 81)   DRY(  4, 82)   DRY(  4, 83)   DRY(  4, 84)   DRY(  4, 85)   
    DRY(  4, 86)   DRY(  4, 87)   DRY(  4, 88)   DRY(  4, 89)   DRY(  4, 90)   
    DRY(  4, 91)   DRY(  4, 92)   DRY(  4, 93)   DRY(  4, 94)   DRY(  4, 95)   
    DRY(  4, 96)   DRY(  4, 97)   DRY(  4, 98)   DRY(  4, 99)   DRY(  4,100)   
    DRY(  4,101)   DRY(  4,102)   DRY(  4,103)   DRY(  4,104)   DRY(  4,105)   
    DRY(  4,106)   DRY(  4,107)   DRY(  4,108)   DRY(  4,109)   DRY(  4,110)   
    DRY(  4,111)   DRY(  4,112)   DRY(  4,113)   DRY(  4,114)   DRY(  4,115)   
    DRY(  4,116)   DRY(  4,117)   DRY(  4,118)   DRY(  4,119)   DRY(  4,120)   
    DRY(  4,121)   DRY(  4,122)   DRY(  4,123)   DRY(  4,124)   DRY(  4,125)   
    DRY(  4,126)   DRY(  4,127)   DRY(  4,128)   DRY(  4,129)   DRY(  4,130)   
    DRY(  4,131)   DRY(  4,132)   DRY(  4,133)   DRY(  4,134)   DRY(  4,135)   
    DRY(  4,136)   DRY(  4,137)   DRY(  4,138)   DRY(  4,139)   DRY(  4,140)   
    DRY(  4,141)   DRY(  4,142)   DRY(  4,143)   DRY(  4,144)   DRY(  4,145)   
    DRY(  4,146)   DRY(  4,147)   DRY(  4,148)   DRY(  4,149)   DRY(  4,150)   
    DRY(  4,151)   DRY(  4,152)   DRY(  4,153)   DRY(  4,154)   DRY(  4,155)   
    DRY(  4,156)   DRY(  4,157)   DRY(  4,158)   DRY(  4,159)   DRY(  4,160)   
    DRY(  4,161)   DRY(  4,162)   DRY(  4,163)   DRY(  4,164)   DRY(  4,165)   
    DRY(  4,166)   DRY(  4,167)   DRY(  4,168)   DRY(  4,169)   DRY(  4,170)   
    DRY(  4,171)   DRY(  4,172)   DRY(  4,173)   DRY(  4,174)   DRY(  4,175)   
    DRY(  4,176)   DRY(  4,177)   DRY(  4,178)   DRY(  4,179)   DRY(  4,180)   
    DRY(  4,181)   DRY(  4,182)   DRY(  4,183)   DRY(  4,184)   DRY(  4,185)   
    DRY(  4,186)   DRY(  4,187)   DRY(  4,188)   DRY(  4,189)   DRY(  4,190)   
    DRY(  4,191)   DRY(  4,192)   DRY(  4,193)   DRY(  4,194)   DRY(  4,195)   
    DRY(  4,196)   DRY(  4,197)   DRY(  4,198)   DRY(  4,199)   DRY(  4,200)   
    DRY(  4,201)   DRY(  4,202)   DRY(  4,203)   DRY(  4,204)   DRY(  4,205)   
    DRY(  4,206)   DRY(  4,207)   DRY(  4,208)   DRY(  4,209)   DRY(  4,210)   
    DRY(  4,211)   DRY(  4,212)   DRY(  4,213)   DRY(  4,214)   DRY(  4,215)   
    DRY(  4,216)   DRY(  4,217)   DRY(  4,218)   DRY(  4,219)   DRY(  4,220)   
    DRY(  5,  1)   DRY(  5,  2)   DRY(  5,  3)   DRY(  5,  4)   DRY(  5,  5)   
    DRY(  5,  6)   DRY(  5,  7)   DRY(  5,  8)   DRY(  5,  9)   DRY(  5, 10)   
    DRY(  5, 11)   DRY(  5, 12)   DRY(  5, 13)   DRY(  5, 14)   DRY(  5, 15)   
    DRY(  5, 16)   DRY(  5, 17)   DRY(  5, 18)   DRY(  5, 19)   DRY(  5, 20)   
    DRY(  5, 21)   DRY(  5, 22)   DRY(  5, 23)   DRY(  5, 24)   DRY(  5, 25)   
    DRY(  5, 26)   DRY(  5, 27)   DRY(  5, 28)   DRY(  5, 29)   DRY(  5, 30)   
    DRY(  5, 31)   DRY(  5, 32)   DRY(  5, 33)   DRY(  5, 34)   DRY(  5, 35)   
    DRY(  5, 36)   DRY(  5, 37)   DRY(  5, 38)   DRY(  5, 39)   DRY(  5, 40)   
    DRY(  5, 41)   DRY(  5, 42)   DRY(  5, 43)   DRY(  5, 44)   DRY(  5, 45)   
    DRY(  5, 46)   DRY(  5, 47)   DRY(  5, 48)   DRY(  5, 49)   DRY(  5, 50)   
    DRY(  5, 51)   DRY(  5, 52)   DRY(  5, 53)   DRY(  5, 54)   DRY(  5, 55)   
    DRY(  5, 56)   DRY(  5, 57)   DRY(  5, 58)   DRY(  5, 59)   DRY(  5, 60)   
    DRY(  5, 61)   DRY(  5, 62)   DRY(  5, 63)   DRY(  5, 64)   DRY(  5, 65)   
    DRY(  5, 66)   DRY(  5, 67)   DRY(  5, 68)   DRY(  5, 69)   DRY(  5, 70)   
    DRY(  5, 71)   DRY(  5, 72)   DRY(  5, 73)   DRY(  5, 74)   DRY(  5, 75)   
    DRY(  5, 76)   DRY(  5, 77)   DRY(  5, 78)   DRY(  5, 79)   DRY(  5, 80)   
    DRY(  5, 81)   DRY(  5, 82)   DRY(  5, 83)   DRY(  5, 84)   DRY(  5, 85)   
    DRY(  5, 86)   DRY(  5, 87)   DRY(  5, 88)   DRY(  5, 89)   DRY(  5, 90)   
    DRY(  5, 91)   DRY(  5, 92)   DRY(  5, 93)   DRY(  5, 94)   DRY(  5, 95)   
    DRY(  5, 96)   DRY(  5, 97)   DRY(  5, 98)   DRY(  5, 99)   DRY(  5,100)   
    DRY(  5,101)   DRY(  5,102)   DRY(  5,103)   DRY(  5,104)   DRY(  5,105)   
    DRY(  5,106)   DRY(  5,107)   DRY(  5,108)   DRY(  5,109)   DRY(  5,110)   
    DRY(  5,111)   DRY(  5,112)   DRY(  5,113)   DRY(  5,114)   DRY(  5,115)   
    DRY(  5,116)   DRY(  5,117)   DRY(  5,118)   DRY(  5,119)   DRY(  5,120)   
    DRY(  5,121)   DRY(  5,122)   DRY(  5,123)   DRY(  5,124)   DRY(  5,125)   
    DRY(  5,126)   DRY(  5,127)   DRY(  5,128)   DRY(  5,129)   DRY(  5,130)   
    DRY(  5,131)   DRY(  5,132)   DRY(  5,133)   DRY(  5,134)   DRY(  5,135)   
    DRY(  5,136)   DRY(  5,137)   DRY(  5,138)   DRY(  5,139)   DRY(  5,140)   
    DRY(  5,141)   DRY(  5,142)   DRY(  5,143)   DRY(  5,144)   DRY(  5,145)   
    DRY(  5,146)   DRY(  5,147)   DRY(  5,148)   DRY(  5,149)   DRY(  5,150)   
    DRY(  5,151)   DRY(  5,152)   DRY(  5,153)   DRY(  5,154)   DRY(  5,155)   
    DRY(  5,156)   DRY(  5,157)   DRY(  5,158)   DRY(  5,159)   DRY(  5,160)   
    DRY(  5,161)   DRY(  5,162)   DRY(  5,163)   DRY(  5,164)   DRY(  5,165)   
    DRY(  5,166)   DRY(  5,167)   DRY(  5,168)   DRY(  5,169)   DRY(  5,170)   
    DRY(  5,171)   DRY(  5,172)   DRY(  5,173)   DRY(  5,174)   DRY(  5,175)   
    DRY(  5,176)   DRY(  5,177)   DRY(  5,178)   DRY(  5,179)   DRY(  5,180)   
    DRY(  5,181)   DRY(  5,182)   DRY(  5,183)   DRY(  5,184)   DRY(  5,185)   
    DRY(  5,186)   DRY(  5,187)   DRY(  5,188)   DRY(  5,189)   DRY(  5,190)   
    DRY(  5,191)   DRY(  5,192)   DRY(  5,193)   DRY(  5,194)   DRY(  5,195)   
    DRY(  5,196)   DRY(  5,197)   DRY(  5,198)   DRY(  5,199)   DRY(  5,200)   
    DRY(  5,201)   DRY(  5,202)   DRY(  5,203)   DRY(  5,204)   DRY(  5,205)   
    DRY(  5,206)   DRY(  5,207)   DRY(  5,208)   DRY(  5,209)   DRY(  5,210)   
    DRY(  5,211)   DRY(  5,212)   DRY(  5,213)   DRY(  5,214)   DRY(  5,215)   
    DRY(  5,216)   DRY(  5,217)   DRY(  5,218)   DRY(  5,219)   DRY(  5,220)   
    DRY(  6,  1)   DRY(  6,  2)   DRY(  6,  3)   DRY(  6,  4)   DRY(  6,  5)   
    DRY(  6,  6)   DRY(  6,  7)   DRY(  6,  8)   DRY(  6,  9)   DRY(  6, 10)   
    DRY(  6, 11)   DRY(  6, 12)   DRY(  6, 13)   DRY(  6, 14)   DRY(  6, 15)   
    DRY(  6, 16)   DRY(  6, 17)   DRY(  6, 18)   DRY(  6, 19)   DRY(  6, 20)   
    DRY(  6, 21)   DRY(  6, 22)   DRY(  6, 23)   DRY(  6, 24)   DRY(  6, 25)   
    DRY(  6, 26)   DRY(  6, 27)   DRY(  6, 28)   DRY(  6, 29)   DRY(  6, 30)   
    DRY(  6, 31)   DRY(  6, 32)   DRY(  6, 33)   DRY(  6, 34)   DRY(  6, 35)   
    DRY(  6, 36)   DRY(  6, 37)   DRY(  6, 38)   DRY(  6, 39)   DRY(  6, 40)   
    DRY(  6, 41)   DRY(  6, 42)   DRY(  6, 43)   DRY(  6, 44)   DRY(  6, 45)   
    DRY(  6, 46)   DRY(  6, 47)   DRY(  6, 48)   DRY(  6, 49)   DRY(  6, 50)   
    DRY(  6, 51)   DRY(  6, 52)   DRY(  6, 53)   DRY(  6, 54)   DRY(  6, 55)   
    DRY(  6, 56)   DRY(  6, 57)   DRY(  6, 58)   DRY(  6, 59)   DRY(  6, 60)   
    DRY(  6, 61)   DRY(  6, 62)   DRY(  6, 63)   DRY(  6, 64)   DRY(  6, 65)   
    DRY(  6, 66)   DRY(  6, 67)   DRY(  6, 68)   DRY(  6, 69)   DRY(  6, 70)   
    DRY(  6, 71)   DRY(  6, 72)   DRY(  6, 73)   DRY(  6, 74)   DRY(  6, 75)   
    DRY(  6, 76)   DRY(  6, 77)   DRY(  6, 78)   DRY(  6, 79)   DRY(  6, 80)   
    DRY(  6, 81)   DRY(  6, 82)   DRY(  6, 83)   DRY(  6, 84)   DRY(  6, 85)   
    DRY(  6, 86)   DRY(  6, 87)   DRY(  6, 88)   DRY(  6, 89)   DRY(  6, 90)   
    DRY(  6, 91)   DRY(  6, 92)   DRY(  6, 93)   DRY(  6, 94)   DRY(  6, 95)   
    DRY(  6, 96)   DRY(  6, 97)   DRY(  6, 98)   DRY(  6, 99)   DRY(  6,100)   
    DRY(  6,101)   DRY(  6,102)   DRY(  6,103)   DRY(  6,104)   DRY(  6,105)   
    DRY(  6,106)   DRY(  6,107)   DRY(  6,108)   DRY(  6,109)   DRY(  6,110)   
    DRY(  6,111)   DRY(  6,112)   DRY(  6,113)   DRY(  6,114)   DRY(  6,115)   
    DRY(  6,116)   DRY(  6,117)   DRY(  6,118)   DRY(  6,119)   DRY(  6,120)   
    DRY(  6,121)   DRY(  6,122)   DRY(  6,123)   DRY(  6,124)   DRY(  6,125)   
    DRY(  6,126)   DRY(  6,127)   DRY(  6,128)   DRY(  6,129)   DRY(  6,130)   
    DRY(  6,131)   DRY(  6,132)   DRY(  6,133)   DRY(  6,134)   DRY(  6,135)   
    DRY(  6,136)   DRY(  6,137)   DRY(  6,138)   DRY(  6,139)   DRY(  6,140)   
    DRY(  6,141)   DRY(  6,142)   DRY(  6,143)   DRY(  6,144)   DRY(  6,145)   
    DRY(  6,146)   DRY(  6,147)   DRY(  6,148)   DRY(  6,149)   DRY(  6,150)   
    DRY(  6,151)   DRY(  6,152)   DRY(  6,153)   DRY(  6,154)   DRY(  6,155)   
    DRY(  6,156)   DRY(  6,157)   DRY(  6,158)   DRY(  6,159)   DRY(  6,160)   
    DRY(  6,161)   DRY(  6,162)   DRY(  6,163)   DRY(  6,164)   DRY(  6,165)   
    DRY(  6,166)   DRY(  6,167)   DRY(  6,168)   DRY(  6,169)   DRY(  6,170)   
    DRY(  6,171)   DRY(  6,172)   DRY(  6,173)   DRY(  6,174)   DRY(  6,175)   
    DRY(  6,176)   DRY(  6,177)   DRY(  6,178)   DRY(  6,179)   DRY(  6,180)   
    DRY(  6,181)   DRY(  6,182)   DRY(  6,183)   DRY(  6,184)   DRY(  6,185)   
    DRY(  6,186)   DRY(  6,187)   DRY(  6,188)   DRY(  6,189)   DRY(  6,190)   
    DRY(  6,191)   DRY(  6,192)   DRY(  6,193)   DRY(  6,194)   DRY(  6,195)   
    DRY(  6,196)   DRY(  6,197)   DRY(  6,198)   DRY(  6,199)   DRY(  6,200)   
    DRY(  6,201)   DRY(  6,202)   DRY(  6,203)   DRY(  6,204)   DRY(  6,205)   
    DRY(  6,206)   DRY(  6,207)   DRY(  6,208)   DRY(  6,209)   DRY(  6,210)   
    DRY(  6,211)   DRY(  6,212)   DRY(  6,213)   DRY(  6,214)   DRY(  6,215)   
    DRY(  6,216)   DRY(  6,217)   DRY(  6,218)   DRY(  6,219)   DRY(  6,220)   
    DRY(  7,  1)   DRY(  7,  2)   DRY(  7,  3)   DRY(  7,  4)   DRY(  7,  5)   
    DRY(  7,  6)   DRY(  7,  7)   DRY(  7,  8)   DRY(  7,  9)   DRY(  7, 10)   
    DRY(  7, 11)   DRY(  7, 12)   DRY(  7, 13)   DRY(  7, 14)   DRY(  7, 15)   
    DRY(  7, 16)   DRY(  7, 17)   DRY(  7, 18)   DRY(  7, 19)   DRY(  7, 20)   
    DRY(  7, 21)   DRY(  7, 22)   DRY(  7, 23)   DRY(  7, 24)   DRY(  7, 25)   
    DRY(  7, 26)   DRY(  7, 27)   DRY(  7, 28)   DRY(  7, 29)   DRY(  7, 30)   
    DRY(  7, 31)   DRY(  7, 32)   DRY(  7, 33)   DRY(  7, 34)   DRY(  7, 35)   
    DRY(  7, 36)   DRY(  7, 37)   DRY(  7, 38)   DRY(  7, 39)   DRY(  7, 40)   
    DRY(  7, 41)   DRY(  7, 42)   DRY(  7, 43)   DRY(  7, 44)   DRY(  7, 45)   
    DRY(  7, 46)   DRY(  7, 47)   DRY(  7, 48)   DRY(  7, 49)   DRY(  7, 50)   
    DRY(  7, 51)   DRY(  7, 52)   DRY(  7, 53)   DRY(  7, 54)   DRY(  7, 55)   
    DRY(  7, 56)   DRY(  7, 57)   DRY(  7, 58)   DRY(  7, 59)   DRY(  7, 60)   
    DRY(  7, 61)   DRY(  7, 62)   DRY(  7, 63)   DRY(  7, 64)   DRY(  7, 65)   
    DRY(  7, 66)   DRY(  7, 67)   DRY(  7, 68)   DRY(  7, 69)   DRY(  7, 70)   
    DRY(  7, 71)   DRY(  7, 72)   DRY(  7, 73)   DRY(  7, 74)   DRY(  7, 75)   
    DRY(  7, 76)   DRY(  7, 77)   DRY(  7, 78)   DRY(  7, 79)   DRY(  7, 80)   
    DRY(  7, 81)   DRY(  7, 82)   DRY(  7, 83)   DRY(  7, 84)   DRY(  7, 85)   
    DRY(  7, 86)   DRY(  7, 87)   DRY(  7, 88)   DRY(  7, 89)   DRY(  7, 90)   
    DRY(  7, 91)   DRY(  7, 92)   DRY(  7, 93)   DRY(  7, 94)   DRY(  7, 95)   
    DRY(  7, 96)   DRY(  7, 97)   DRY(  7, 98)   DRY(  7, 99)   DRY(  7,100)   
    DRY(  7,101)   DRY(  7,102)   DRY(  7,103)   DRY(  7,104)   DRY(  7,105)   
    DRY(  7,106)   DRY(  7,107)   DRY(  7,108)   DRY(  7,109)   DRY(  7,110)   
    DRY(  7,111)   DRY(  7,112)   DRY(  7,113)   DRY(  7,114)   DRY(  7,115)   
    DRY(  7,116)   DRY(  7,117)   DRY(  7,118)   DRY(  7,119)   DRY(  7,120)   
    DRY(  7,121)   DRY(  7,122)   DRY(  7,123)   DRY(  7,124)   DRY(  7,125)   
    DRY(  7,126)   DRY(  7,127)   DRY(  7,128)   DRY(  7,129)   DRY(  7,130)   
    DRY(  7,131)   DRY(  7,132)   DRY(  7,133)   DRY(  7,134)   DRY(  7,135)   
    DRY(  7,136)   DRY(  7,137)   DRY(  7,138)   DRY(  7,139)   DRY(  7,140)   
    DRY(  7,141)   DRY(  7,142)   DRY(  7,143)   DRY(  7,144)   DRY(  7,145)   
    DRY(  7,146)   DRY(  7,147)   DRY(  7,148)   DRY(  7,149)   DRY(  7,150)   
    DRY(  7,151)   DRY(  7,152)   DRY(  7,153)   DRY(  7,154)   DRY(  7,155)   
    DRY(  7,156)   DRY(  7,157)   DRY(  7,158)   DRY(  7,159)   DRY(  7,160)   
    DRY(  7,161)   DRY(  7,162)   DRY(  7,163)   DRY(  7,164)   DRY(  7,165)   
    DRY(  7,166)   DRY(  7,167)   DRY(  7,168)   DRY(  7,169)   DRY(  7,170)   
    DRY(  7,171)   DRY(  7,172)   DRY(  7,173)   DRY(  7,174)   DRY(  7,175)   
    DRY(  7,176)   DRY(  7,177)   DRY(  7,178)   DRY(  7,179)   DRY(  7,180)   
    DRY(  7,181)   DRY(  7,182)   DRY(  7,183)   DRY(  7,184)   DRY(  7,185)   
    DRY(  7,186)   DRY(  7,187)   DRY(  7,188)   DRY(  7,189)   DRY(  7,190)   
    DRY(  7,191)   DRY(  7,192)   DRY(  7,193)   DRY(  7,194)   DRY(  7,195)   
    DRY(  7,196)   DRY(  7,197)   DRY(  7,198)   DRY(  7,199)   DRY(  7,200)   
    DRY(  7,201)   DRY(  7,202)   DRY(  7,203)   DRY(  7,204)   DRY(  7,205)   
    DRY(  7,206)   DRY(  7,207)   DRY(  7,208)   DRY(  7,209)   DRY(  7,210)   
    DRY(  7,211)   DRY(  7,212)   DRY(  7,213)   DRY(  7,214)   DRY(  7,215)   
    DRY(  7,216)   DRY(  7,217)   DRY(  7,218)   DRY(  7,219)   DRY(  7,220)   
    DRY(  8,  1)   DRY(  8,  2)   DRY(  8,  3)   DRY(  8,  4)   DRY(  8,  5)   
    DRY(  8,  6)   DRY(  8,  7)   DRY(  8,  8)   DRY(  8,  9)   DRY(  8, 10)   
    DRY(  8, 11)   DRY(  8, 12)   DRY(  8, 13)   DRY(  8, 14)   DRY(  8, 15)   
    DRY(  8, 16)   DRY(  8, 17)   DRY(  8, 18)   DRY(  8, 19)   DRY(  8, 20)   
    DRY(  8, 21)   DRY(  8, 22)   DRY(  8, 23)   DRY(  8, 24)   DRY(  8, 25)   
    DRY(  8, 26)   DRY(  8, 27)   DRY(  8, 28)   DRY(  8, 29)   DRY(  8, 30)   
    DRY(  8, 31)   DRY(  8, 32)   DRY(  8, 33)   DRY(  8, 34)   DRY(  8, 35)   
    DRY(  8, 36)   DRY(  8, 37)   DRY(  8, 38)   DRY(  8, 39)   DRY(  8, 40)   
    DRY(  8, 41)   DRY(  8, 42)   DRY(  8, 43)   DRY(  8, 44)   DRY(  8, 45)   
    DRY(  8, 46)   DRY(  8, 47)   DRY(  8, 48)   DRY(  8, 49)   DRY(  8, 50)   
    DRY(  8, 51)   DRY(  8, 52)   DRY(  8, 53)   DRY(  8, 54)   DRY(  8, 55)   
    DRY(  8, 56)   DRY(  8, 57)   DRY(  8, 58)   DRY(  8, 59)   DRY(  8, 60)   
    DRY(  8, 61)   DRY(  8, 62)   DRY(  8, 63)   DRY(  8, 64)   DRY(  8, 65)   
    DRY(  8, 66)   DRY(  8, 67)   DRY(  8, 68)   DRY(  8, 69)   DRY(  8, 70)   
    DRY(  8, 71)   DRY(  8, 72)   DRY(  8, 73)   DRY(  8, 74)   DRY(  8, 75)   
    DRY(  8, 76)   DRY(  8, 77)   DRY(  8, 78)   DRY(  8, 79)   DRY(  8, 80)   
    DRY(  8, 81)   DRY(  8, 82)   DRY(  8, 83)   DRY(  8, 84)   DRY(  8, 85)   
    DRY(  8, 86)   DRY(  8, 87)   DRY(  8, 88)   DRY(  8, 89)   DRY(  8, 90)   
    DRY(  8, 91)   DRY(  8, 92)   DRY(  8, 93)   DRY(  8, 94)   DRY(  8, 95)   
    DRY(  8, 96)   DRY(  8, 97)   DRY(  8, 98)   DRY(  8, 99)   DRY(  8,100)   
    DRY(  8,101)   DRY(  8,102)   DRY(  8,103)   DRY(  8,104)   DRY(  8,105)   
    DRY(  8,106)   DRY(  8,107)   DRY(  8,108)   DRY(  8,109)   DRY(  8,110)   
    DRY(  8,111)   DRY(  8,112)   DRY(  8,113)   DRY(  8,114)   DRY(  8,115)   
    DRY(  8,116)   DRY(  8,117)   DRY(  8,118)   DRY(  8,119)   DRY(  8,120)   
    DRY(  8,121)   DRY(  8,122)   DRY(  8,123)   DRY(  8,124)   DRY(  8,125)   
    DRY(  8,126)   DRY(  8,127)   DRY(  8,128)   DRY(  8,129)   DRY(  8,130)   
    DRY(  8,131)   DRY(  8,132)   DRY(  8,133)   DRY(  8,134)   DRY(  8,135)   
    DRY(  8,136)   DRY(  8,137)   DRY(  8,138)   DRY(  8,139)   DRY(  8,140)   
    DRY(  8,141)   DRY(  8,142)   DRY(  8,143)   DRY(  8,144)   DRY(  8,145)   
    DRY(  8,146)   DRY(  8,147)   DRY(  8,148)   DRY(  8,149)   DRY(  8,150)   
    DRY(  8,151)   DRY(  8,152)   DRY(  8,153)   DRY(  8,154)   DRY(  8,155)   
    DRY(  8,156)   DRY(  8,157)   DRY(  8,158)   DRY(  8,159)   DRY(  8,160)   
    DRY(  8,161)   DRY(  8,162)   DRY(  8,163)   DRY(  8,164)   DRY(  8,165)   
    DRY(  8,166)   DRY(  8,167)   DRY(  8,168)   DRY(  8,169)   DRY(  8,170)   
    DRY(  8,171)   DRY(  8,172)   DRY(  8,173)   DRY(  8,174)   DRY(  8,175)   
    DRY(  8,176)   DRY(  8,177)   DRY(  8,178)   DRY(  8,179)   DRY(  8,180)   
    DRY(  8,181)   DRY(  8,182)   DRY(  8,183)   DRY(  8,184)   DRY(  8,185)   
    DRY(  8,186)   DRY(  8,187)   DRY(  8,188)   DRY(  8,189)   DRY(  8,190)   
    DRY(  8,191)   DRY(  8,192)   DRY(  8,193)   DRY(  8,194)   DRY(  8,195)   
    DRY(  8,196)   DRY(  8,197)   DRY(  8,198)   DRY(  8,199)   DRY(  8,200)   
    DRY(  8,201)   DRY(  8,202)   DRY(  8,203)   DRY(  8,204)   DRY(  8,205)   
    DRY(  8,206)   DRY(  8,207)   DRY(  8,208)   DRY(  8,209)   DRY(  8,210)   
    DRY(  8,211)   DRY(  8,212)   DRY(  8,213)   DRY(  8,214)   DRY(  8,215)   
    DRY(  8,216)   DRY(  8,217)   DRY(  8,218)   DRY(  8,219)   DRY(  8,220)   
    DRY(  9,  1)   DRY(  9,  2)   DRY(  9,  3)   DRY(  9,  4)   DRY(  9,  5)   
    DRY(  9,  6)   DRY(  9,  7)   DRY(  9,  8)   DRY(  9,  9)   DRY(  9, 10)   
    DRY(  9, 11)   DRY(  9, 12)   DRY(  9, 13)   DRY(  9, 14)   DRY(  9, 15)   
    DRY(  9, 16)   DRY(  9, 17)   DRY(  9, 18)   DRY(  9, 19)   DRY(  9, 20)   
    DRY(  9, 21)   DRY(  9, 22)   DRY(  9, 23)   DRY(  9, 24)   DRY(  9, 25)   
    DRY(  9, 26)   DRY(  9, 27)   DRY(  9, 28)   DRY(  9, 29)   DRY(  9, 30)   
    DRY(  9, 31)   DRY(  9, 32)   DRY(  9, 33)   DRY(  9, 34)   DRY(  9, 35)   
    DRY(  9, 36)   DRY(  9, 37)   DRY(  9, 38)   DRY(  9, 39)   DRY(  9, 40)   
    DRY(  9, 41)   DRY(  9, 42)   DRY(  9, 43)   DRY(  9, 44)   DRY(  9, 45)   
    DRY(  9, 46)   DRY(  9, 47)   DRY(  9, 48)   DRY(  9, 49)   DRY(  9, 50)   
    DRY(  9, 51)   DRY(  9, 52)   DRY(  9, 53)   DRY(  9, 54)   DRY(  9, 55)   
    DRY(  9, 56)   DRY(  9, 57)   DRY(  9, 58)   DRY(  9, 59)   DRY(  9, 60)   
    DRY(  9, 61)   DRY(  9, 62)   DRY(  9, 63)   DRY(  9, 64)   DRY(  9, 65)   
    DRY(  9, 66)   DRY(  9, 67)   DRY(  9, 68)   DRY(  9, 69)   DRY(  9, 70)   
    DRY(  9, 71)   DRY(  9, 72)   DRY(  9, 73)   DRY(  9, 74)   DRY(  9, 75)   
    DRY(  9, 76)   DRY(  9, 77)   DRY(  9, 78)   DRY(  9, 79)   DRY(  9, 80)   
    DRY(  9, 81)   DRY(  9, 82)   DRY(  9, 83)   DRY(  9, 84)   DRY(  9, 85)   
    DRY(  9, 86)   DRY(  9, 87)   DRY(  9, 88)   DRY(  9, 89)   DRY(  9, 90)   
    DRY(  9, 91)   DRY(  9, 92)   DRY(  9, 93)   DRY(  9, 94)   DRY(  9, 95)   
    DRY(  9, 96)   DRY(  9, 97)   DRY(  9, 98)   DRY(  9, 99)   DRY(  9,100)   
    DRY(  9,101)   DRY(  9,102)   DRY(  9,103)   DRY(  9,104)   DRY(  9,105)   
    DRY(  9,106)   DRY(  9,107)   DRY(  9,108)   DRY(  9,109)   DRY(  9,110)   
    DRY(  9,111)   DRY(  9,112)   DRY(  9,113)   DRY(  9,114)   DRY(  9,115)   
    DRY(  9,116)   DRY(  9,117)   DRY(  9,118)   DRY(  9,119)   DRY(  9,120)   
    DRY(  9,121)   DRY(  9,122)   DRY(  9,123)   DRY(  9,124)   DRY(  9,125)   
    DRY(  9,126)   DRY(  9,127)   DRY(  9,128)   DRY(  9,129)   DRY(  9,130)   
    DRY(  9,131)   DRY(  9,132)   DRY(  9,133)   DRY(  9,134)   DRY(  9,135)   
    DRY(  9,136)   DRY(  9,137)   DRY(  9,138)   DRY(  9,139)   DRY(  9,140)   
    DRY(  9,141)   DRY(  9,142)   DRY(  9,143)   DRY(  9,144)   DRY(  9,145)   
    DRY(  9,146)   DRY(  9,147)   DRY(  9,148)   DRY(  9,149)   DRY(  9,150)   
    DRY(  9,151)   DRY(  9,152)   DRY(  9,153)   DRY(  9,154)   DRY(  9,155)   
    DRY(  9,156)   DRY(  9,157)   DRY(  9,158)   DRY(  9,159)   DRY(  9,160)   
    DRY(  9,161)   DRY(  9,162)   DRY(  9,163)   DRY(  9,164)   DRY(  9,165)   
    DRY(  9,166)   DRY(  9,167)   DRY(  9,168)   DRY(  9,169)   DRY(  9,170)   
    DRY(  9,171)   DRY(  9,172)   DRY(  9,173)   DRY(  9,174)   DRY(  9,175)   
    DRY(  9,176)   DRY(  9,177)   DRY(  9,178)   DRY(  9,179)   DRY(  9,180)   
    DRY(  9,181)   DRY(  9,182)   DRY(  9,183)   DRY(  9,184)   DRY(  9,185)   
    DRY(  9,186)   DRY(  9,187)   DRY(  9,188)   DRY(  9,189)   DRY(  9,190)   
    DRY(  9,191)   DRY(  9,192)   DRY(  9,193)   DRY(  9,194)   DRY(  9,195)   
    DRY(  9,196)   DRY(  9,197)   DRY(  9,198)   DRY(  9,199)   DRY(  9,200)   
    DRY(  9,201)   DRY(  9,202)   DRY(  9,203)   DRY(  9,204)   DRY(  9,205)   
    DRY(  9,206)   DRY(  9,207)   DRY(  9,208)   DRY(  9,209)   DRY(  9,210)   
    DRY(  9,211)   DRY(  9,212)   DRY(  9,213)   DRY(  9,214)   DRY(  9,215)   
    DRY(  9,216)   DRY(  9,217)   DRY(  9,218)   DRY(  9,219)   DRY(  9,220)   
    DRY( 10,  1)   DRY( 10,  2)   DRY( 10,  3)   DRY( 10,  4)   DRY( 10,  5)   
    DRY( 10,  6)   DRY( 10,  7)   DRY( 10,  8)   DRY( 10,  9)   DRY( 10, 10)   
    DRY( 10, 11)   DRY( 10, 12)   DRY( 10, 13)   DRY( 10, 14)   DRY( 10, 15)   
    DRY( 10, 16)   DRY( 10, 17)   DRY( 10, 18)   DRY( 10, 19)   DRY( 10, 20)   
    DRY( 10, 21)   DRY( 10, 22)   DRY( 10, 23)   DRY( 10, 24)   DRY( 10, 25)   
    DRY( 10, 26)   DRY( 10, 27)   DRY( 10, 28)   DRY( 10, 29)   DRY( 10, 30)   
    DRY( 10, 31)   DRY( 10, 32)   DRY( 10, 33)   DRY( 10, 34)   DRY( 10, 35)   
    DRY( 10, 36)   DRY( 10, 37)   DRY( 10, 38)   DRY( 10, 39)   DRY( 10, 40)   
    DRY( 10, 41)   DRY( 10, 42)   DRY( 10, 43)   DRY( 10, 44)   DRY( 10, 45)   
    DRY( 10, 46)   DRY( 10, 47)   DRY( 10, 48)   DRY( 10, 49)   DRY( 10, 50)   
    DRY( 10, 51)   DRY( 10, 52)   DRY( 10, 53)   DRY( 10, 54)   DRY( 10, 55)   
    DRY( 10, 56)   DRY( 10, 57)   DRY( 10, 58)   DRY( 10, 59)   DRY( 10, 60)   
    DRY( 10, 61)   DRY( 10, 62)   DRY( 10, 63)   DRY( 10, 64)   DRY( 10, 65)   
    DRY( 10, 66)   DRY( 10, 67)   DRY( 10, 68)   DRY( 10, 69)   DRY( 10, 70)   
    DRY( 10, 71)   DRY( 10, 72)   DRY( 10, 73)   DRY( 10, 74)   DRY( 10, 75)   
    DRY( 10, 76)   DRY( 10, 77)   DRY( 10, 78)   DRY( 10, 79)   DRY( 10, 80)   
    DRY( 10, 81)   DRY( 10, 82)   DRY( 10, 83)   DRY( 10, 84)   DRY( 10, 85)   
    DRY( 10, 86)   DRY( 10, 87)   DRY( 10, 88)   DRY( 10, 89)   DRY( 10, 90)   
    DRY( 10, 91)   DRY( 10, 92)   DRY( 10, 93)   DRY( 10, 94)   DRY( 10, 95)   
    DRY( 10, 96)   DRY( 10, 97)   DRY( 10, 98)   DRY( 10, 99)   DRY( 10,100)   
    DRY( 10,101)   DRY( 10,102)   DRY( 10,103)   DRY( 10,104)   DRY( 10,105)   
    DRY( 10,106)   DRY( 10,107)   DRY( 10,108)   DRY( 10,109)   DRY( 10,110)   
    DRY( 10,111)   DRY( 10,112)   DRY( 10,113)   DRY( 10,114)   DRY( 10,115)   
    DRY( 10,116)   DRY( 10,117)   DRY( 10,118)   DRY( 10,119)   DRY( 10,120)   
    DRY( 10,121)   DRY( 10,122)   DRY( 10,123)   DRY( 10,124)   DRY( 10,125)   
    DRY( 10,126)   DRY( 10,127)   DRY( 10,128)   DRY( 10,129)   DRY( 10,130)   
    DRY( 10,131)   DRY( 10,132)   DRY( 10,133)   DRY( 10,134)   DRY( 10,135)   
    DRY( 10,136)   DRY( 10,137)   DRY( 10,138)   DRY( 10,139)   DRY( 10,140)   
    DRY( 10,141)   DRY( 10,142)   DRY( 10,143)   DRY( 10,144)   DRY( 10,145)   
    DRY( 10,146)   DRY( 10,147)   DRY( 10,148)   DRY( 10,149)   DRY( 10,150)   
    DRY( 10,151)   DRY( 10,152)   DRY( 10,153)   DRY( 10,154)   DRY( 10,155)   
    DRY( 10,156)   DRY( 10,157)   DRY( 10,158)   DRY( 10,159)   DRY( 10,160)   
    DRY( 10,161)   DRY( 10,162)   DRY( 10,163)   DRY( 10,164)   DRY( 10,165)   
    DRY( 10,166)   DRY( 10,167)   DRY( 10,168)   DRY( 10,169)   DRY( 10,170)   
    DRY( 10,171)   DRY( 10,172)   DRY( 10,173)   DRY( 10,174)   DRY( 10,175)   
    DRY( 10,176)   DRY( 10,177)   DRY( 10,178)   DRY( 10,179)   DRY( 10,180)   
    DRY( 10,181)   DRY( 10,182)   DRY( 10,183)   DRY( 10,184)   DRY( 10,185)   
    DRY( 10,186)   DRY( 10,187)   DRY( 10,188)   DRY( 10,189)   DRY( 10,190)   
    DRY( 10,191)   DRY( 10,192)   DRY( 10,193)   DRY( 10,194)   DRY( 10,195)   
    DRY( 10,196)   DRY( 10,197)   DRY( 10,198)   DRY( 10,199)   DRY( 10,200)   
    DRY( 10,201)   DRY( 10,202)   DRY( 10,203)   DRY( 10,204)   DRY( 10,205)   
    DRY( 10,206)   DRY( 10,207)   DRY( 10,208)   DRY( 10,209)   DRY( 10,210)   
    DRY( 10,211)   DRY( 10,212)   DRY( 10,213)   DRY( 10,214)   DRY( 10,215)   
    DRY( 10,216)   DRY( 10,217)   DRY( 10,218)   DRY( 10,219)   DRY( 10,220)   
    DRY( 11,  1)   DRY( 11,  2)   DRY( 11,  3)   DRY( 11,  4)   DRY( 11,  5)   
    DRY( 11,  6)   DRY( 11,  7)   DRY( 11,  8)   DRY( 11,  9)   DRY( 11, 10)   
    DRY( 11, 11)   DRY( 11, 12)   DRY( 11, 13)   DRY( 11, 14)   DRY( 11, 15)   
    DRY( 11, 16)   DRY( 11, 17)   DRY( 11, 18)   DRY( 11, 19)   DRY( 11, 20)   
    DRY( 11, 21)   DRY( 11, 22)   DRY( 11, 23)   DRY( 11, 24)   DRY( 11, 25)   
    DRY( 11, 26)   DRY( 11, 27)   DRY( 11, 28)   DRY( 11, 29)   DRY( 11, 30)   
    DRY( 11, 31)   DRY( 11, 32)   DRY( 11, 33)   DRY( 11, 34)   DRY( 11, 35)   
    DRY( 11, 36)   DRY( 11, 37)   DRY( 11, 38)   DRY( 11, 39)   DRY( 11, 40)   
    DRY( 11, 41)   DRY( 11, 42)   DRY( 11, 43)   DRY( 11, 44)   DRY( 11, 45)   
    DRY( 11, 46)   DRY( 11, 47)   DRY( 11, 48)   DRY( 11, 49)   DRY( 11, 50)   
    DRY( 11, 51)   DRY( 11, 52)   DRY( 11, 53)   DRY( 11, 54)   DRY( 11, 55)   
    DRY( 11, 56)   DRY( 11, 57)   DRY( 11, 58)   DRY( 11, 59)   DRY( 11, 60)   
    DRY( 11, 61)   DRY( 11, 62)   DRY( 11, 63)   DRY( 11, 64)   DRY( 11, 65)   
    DRY( 11, 66)   DRY( 11, 67)   DRY( 11, 68)   DRY( 11, 69)   DRY( 11, 70)   
    DRY( 11, 71)   DRY( 11, 72)   DRY( 11, 73)   DRY( 11, 74)   DRY( 11, 75)   
    DRY( 11, 76)   DRY( 11, 77)   DRY( 11, 78)   DRY( 11, 79)   DRY( 11, 80)   
    DRY( 11, 81)   DRY( 11, 82)   DRY( 11, 83)   DRY( 11, 84)   DRY( 11, 85)   
    DRY( 11, 86)   DRY( 11, 87)   DRY( 11, 88)   DRY( 11, 89)   DRY( 11, 90)   
    DRY( 11, 91)   DRY( 11, 92)   DRY( 11, 93)   DRY( 11, 94)   DRY( 11, 95)   
    DRY( 11, 96)   DRY( 11, 97)   DRY( 11, 98)   DRY( 11, 99)   DRY( 11,100)   
    DRY( 11,101)   DRY( 11,102)   DRY( 11,103)   DRY( 11,104)   DRY( 11,105)   
    DRY( 11,106)   DRY( 11,107)   DRY( 11,108)   DRY( 11,109)   DRY( 11,110)   
    DRY( 11,111)   DRY( 11,112)   DRY( 11,113)   DRY( 11,114)   DRY( 11,115)   
    DRY( 11,116)   DRY( 11,117)   DRY( 11,118)   DRY( 11,119)   DRY( 11,120)   
    DRY( 11,121)   DRY( 11,122)   DRY( 11,123)   DRY( 11,124)   DRY( 11,125)   
    DRY( 11,126)   DRY( 11,127)   DRY( 11,128)   DRY( 11,129)   DRY( 11,130)   
    DRY( 11,131)   DRY( 11,132)   DRY( 11,133)   DRY( 11,134)   DRY( 11,135)   
    DRY( 11,136)   DRY( 11,137)   DRY( 11,138)   DRY( 11,139)   DRY( 11,140)   
    DRY( 11,141)   DRY( 11,142)   DRY( 11,143)   DRY( 11,144)   DRY( 11,145)   
    DRY( 11,146)   DRY( 11,147)   DRY( 11,148)   DRY( 11,149)   DRY( 11,150)   
    DRY( 11,151)   DRY( 11,152)   DRY( 11,153)   DRY( 11,154)   DRY( 11,155)   
    DRY( 11,156)   DRY( 11,157)   DRY( 11,158)   DRY( 11,159)   DRY( 11,160)   
    DRY( 11,161)   DRY( 11,162)   DRY( 11,163)   DRY( 11,164)   DRY( 11,165)   
    DRY( 11,166)   DRY( 11,167)   DRY( 11,168)   DRY( 11,169)   DRY( 11,170)   
    DRY( 11,171)   DRY( 11,172)   DRY( 11,173)   DRY( 11,174)   DRY( 11,175)   
    DRY( 11,176)   DRY( 11,177)   DRY( 11,178)   DRY( 11,179)   DRY( 11,180)   
    DRY( 11,181)   DRY( 11,182)   DRY( 11,183)   DRY( 11,184)   DRY( 11,185)   
    DRY( 11,186)   DRY( 11,187)   DRY( 11,188)   DRY( 11,189)   DRY( 11,190)   
    DRY( 11,191)   DRY( 11,192)   DRY( 11,193)   DRY( 11,194)   DRY( 11,195)   
    DRY( 11,196)   DRY( 11,197)   DRY( 11,198)   DRY( 11,199)   DRY( 11,200)   
    DRY( 11,201)   DRY( 11,202)   DRY( 11,203)   DRY( 11,204)   DRY( 11,205)   
    DRY( 11,206)   DRY( 11,207)   DRY( 11,208)   DRY( 11,209)   DRY( 11,210)   
    DRY( 11,211)   DRY( 11,212)   DRY( 11,213)   DRY( 11,214)   DRY( 11,215)   
    DRY( 11,216)   DRY( 11,217)   DRY( 11,218)   DRY( 11,219)   DRY( 11,220)   
    DRY( 12,  1)   DRY( 12,  2)   DRY( 12,  3)   DRY( 12,  4)   DRY( 12,  5)   
    DRY( 12,  6)   DRY( 12,  7)   DRY( 12,  8)   DRY( 12,  9)   DRY( 12, 10)   
    DRY( 12, 11)   DRY( 12, 12)   DRY( 12, 13)   DRY( 12, 14)   DRY( 12, 15)   
    DRY( 12, 16)   DRY( 12, 17)   DRY( 12, 18)   DRY( 12, 19)   DRY( 12, 20)   
    DRY( 12, 21)   DRY( 12, 22)   DRY( 12, 23)   DRY( 12, 24)   DRY( 12, 25)   
    DRY( 12, 26)   DRY( 12, 27)   DRY( 12, 28)   DRY( 12, 29)   DRY( 12, 30)   
    DRY( 12, 31)   DRY( 12, 32)   DRY( 12, 33)   DRY( 12, 34)   DRY( 12, 35)   
    DRY( 12, 36)   DRY( 12, 37)   DRY( 12, 38)   DRY( 12, 39)   DRY( 12, 40)   
    DRY( 12, 41)   DRY( 12, 42)   DRY( 12, 43)   DRY( 12, 44)   DRY( 12, 45)   
    DRY( 12, 46)   DRY( 12, 47)   DRY( 12, 48)   DRY( 12, 49)   DRY( 12, 50)   
    DRY( 12, 51)   DRY( 12, 52)   DRY( 12, 53)   DRY( 12, 54)   DRY( 12, 55)   
    DRY( 12, 56)   DRY( 12, 57)   DRY( 12, 58)   DRY( 12, 59)   DRY( 12, 60)   
    DRY( 12, 61)   DRY( 12, 62)   DRY( 12, 63)   DRY( 12, 64)   DRY( 12, 65)   
    DRY( 12, 66)   DRY( 12, 67)   DRY( 12, 68)   DRY( 12, 69)   DRY( 12, 70)   
    DRY( 12, 71)   DRY( 12, 72)   DRY( 12, 73)   DRY( 12, 74)   DRY( 12, 75)   
    DRY( 12, 76)   DRY( 12, 77)   DRY( 12, 78)   DRY( 12, 79)   DRY( 12, 80)   
    DRY( 12, 81)   DRY( 12, 82)   DRY( 12, 83)   DRY( 12, 84)   DRY( 12, 85)   
    DRY( 12, 86)   DRY( 12, 87)   DRY( 12, 88)   DRY( 12, 89)   DRY( 12, 90)   
    DRY( 12, 91)   DRY( 12, 92)   DRY( 12, 93)   DRY( 12, 94)   DRY( 12, 95)   
    DRY( 12, 96)   DRY( 12, 97)   DRY( 12, 98)   DRY( 12, 99)   DRY( 12,100)   
    DRY( 12,101)   DRY( 12,102)   DRY( 12,103)   DRY( 12,104)   DRY( 12,105)   
    DRY( 12,106)   DRY( 12,107)   DRY( 12,108)   DRY( 12,109)   DRY( 12,110)   
    DRY( 12,111)   DRY( 12,112)   DRY( 12,113)   DRY( 12,114)   DRY( 12,115)   
    DRY( 12,116)   DRY( 12,117)   DRY( 12,118)   DRY( 12,119)   DRY( 12,120)   
    DRY( 12,121)   DRY( 12,122)   DRY( 12,123)   DRY( 12,124)   DRY( 12,125)   
    DRY( 12,126)   DRY( 12,127)   DRY( 12,128)   DRY( 12,129)   DRY( 12,130)   
    DRY( 12,131)   DRY( 12,132)   DRY( 12,133)   DRY( 12,134)   DRY( 12,135)   
    DRY( 12,136)   DRY( 12,137)   DRY( 12,138)   DRY( 12,139)   DRY( 12,140)   
    DRY( 12,141)   DRY( 12,142)   DRY( 12,143)   DRY( 12,144)   DRY( 12,145)   
    DRY( 12,146)   DRY( 12,147)   DRY( 12,148)   DRY( 12,149)   DRY( 12,150)   
    DRY( 12,151)   DRY( 12,152)   DRY( 12,153)   DRY( 12,154)   DRY( 12,155)   
    DRY( 12,156)   DRY( 12,157)   DRY( 12,158)   DRY( 12,159)   DRY( 12,160)   
    DRY( 12,161)   DRY( 12,162)   DRY( 12,163)   DRY( 12,164)   DRY( 12,165)   
    DRY( 12,166)   DRY( 12,167)   DRY( 12,168)   DRY( 12,169)   DRY( 12,170)   
    DRY( 12,171)   DRY( 12,172)   DRY( 12,173)   DRY( 12,174)   DRY( 12,175)   
    DRY( 12,176)   DRY( 12,177)   DRY( 12,178)   DRY( 12,179)   DRY( 12,180)   
    DRY( 12,181)   DRY( 12,182)   DRY( 12,183)   DRY( 12,184)   DRY( 12,185)   
    DRY( 12,186)   DRY( 12,187)   DRY( 12,188)   DRY( 12,189)   DRY( 12,190)   
    DRY( 12,191)   DRY( 12,192)   DRY( 12,193)   DRY( 12,194)   DRY( 12,195)   
    DRY( 12,196)   DRY( 12,197)   DRY( 12,198)   DRY( 12,199)   DRY( 12,200)   
    DRY( 12,201)   DRY( 12,202)   DRY( 12,203)   DRY( 12,204)   DRY( 12,205)   
    DRY( 12,206)   DRY( 12,207)   DRY( 12,208)   DRY( 12,209)   DRY( 12,210)   
    DRY( 12,211)   DRY( 12,212)   DRY( 12,213)   DRY( 12,214)   DRY( 12,215)   
    DRY( 12,216)   DRY( 12,217)   DRY( 12,218)   DRY( 12,219)   DRY( 12,220)   
    DRY( 13,  1)   DRY( 13,  2)   DRY( 13,  3)   DRY( 13,  4)   DRY( 13,  5)   
    DRY( 13,  6)   DRY( 13,  7)   DRY( 13,  8)   DRY( 13,  9)   DRY( 13, 10)   
    DRY( 13, 11)   DRY( 13, 12)   DRY( 13, 13)   DRY( 13, 14)   DRY( 13, 15)   
    DRY( 13, 16)   DRY( 13, 17)   DRY( 13, 18)   DRY( 13, 19)   DRY( 13, 20)   
    DRY( 13, 21)   DRY( 13, 22)   DRY( 13, 23)   DRY( 13, 24)   DRY( 13, 25)   
    DRY( 13, 26)   DRY( 13, 27)   DRY( 13, 28)   DRY( 13, 29)   DRY( 13, 30)   
    DRY( 13, 31)   DRY( 13, 32)   DRY( 13, 33)   DRY( 13, 34)   DRY( 13, 35)   
    DRY( 13, 36)   DRY( 13, 37)   DRY( 13, 38)   DRY( 13, 39)   DRY( 13, 40)   
    DRY( 13, 41)   DRY( 13, 42)   DRY( 13, 43)   DRY( 13, 44)   DRY( 13, 45)   
    DRY( 13, 46)   DRY( 13, 47)   DRY( 13, 48)   DRY( 13, 49)   DRY( 13, 50)   
    DRY( 13, 51)   DRY( 13, 52)   DRY( 13, 53)   DRY( 13, 54)   DRY( 13, 55)   
    DRY( 13, 56)   DRY( 13, 57)   DRY( 13, 58)   DRY( 13, 59)   DRY( 13, 60)   
    DRY( 13, 61)   DRY( 13, 62)   DRY( 13, 63)   DRY( 13, 64)   DRY( 13, 65)   
    DRY( 13, 66)   DRY( 13, 67)   DRY( 13, 68)   DRY( 13, 69)   DRY( 13, 70)   
    DRY( 13, 71)   DRY( 13, 72)   DRY( 13, 73)   DRY( 13, 74)   DRY( 13, 75)   
    DRY( 13, 76)   DRY( 13, 77)   DRY( 13, 78)   DRY( 13, 79)   DRY( 13, 80)   
    DRY( 13, 81)   DRY( 13, 82)   DRY( 13, 83)   DRY( 13, 84)   DRY( 13, 85)   
    DRY( 13, 86)   DRY( 13, 87)   DRY( 13, 88)   DRY( 13, 89)   DRY( 13, 90)   
    DRY( 13, 91)   DRY( 13, 92)   DRY( 13, 93)   DRY( 13, 94)   DRY( 13, 95)   
    DRY( 13, 96)   DRY( 13, 97)   DRY( 13, 98)   DRY( 13, 99)   DRY( 13,100)   
    DRY( 13,101)   DRY( 13,102)   DRY( 13,103)   DRY( 13,104)   DRY( 13,105)   
    DRY( 13,106)   DRY( 13,107)   DRY( 13,108)   DRY( 13,109)   DRY( 13,110)   
    DRY( 13,111)   DRY( 13,112)   DRY( 13,113)   DRY( 13,114)   DRY( 13,115)   
    DRY( 13,116)   DRY( 13,117)   DRY( 13,118)   DRY( 13,119)   DRY( 13,120)   
    DRY( 13,121)   DRY( 13,122)   DRY( 13,123)   DRY( 13,124)   DRY( 13,125)   
    DRY( 13,126)   DRY( 13,127)   DRY( 13,128)   DRY( 13,129)   DRY( 13,130)   
    DRY( 13,131)   DRY( 13,132)   DRY( 13,133)   DRY( 13,134)   DRY( 13,135)   
    DRY( 13,136)   DRY( 13,137)   DRY( 13,138)   DRY( 13,139)   DRY( 13,140)   
    DRY( 13,141)   DRY( 13,142)   DRY( 13,143)   DRY( 13,144)   DRY( 13,145)   
    DRY( 13,146)   DRY( 13,147)   DRY( 13,148)   DRY( 13,149)   DRY( 13,150)   
    DRY( 13,151)   DRY( 13,152)   DRY( 13,153)   DRY( 13,154)   DRY( 13,155)   
    DRY( 13,156)   DRY( 13,157)   DRY( 13,158)   DRY( 13,159)   DRY( 13,160)   
    DRY( 13,161)   DRY( 13,162)   DRY( 13,163)   DRY( 13,164)   DRY( 13,165)   
    DRY( 13,166)   DRY( 13,167)   DRY( 13,168)   DRY( 13,169)   DRY( 13,170)   
    DRY( 13,171)   DRY( 13,172)   DRY( 13,173)   DRY( 13,174)   DRY( 13,175)   
    DRY( 13,176)   DRY( 13,177)   DRY( 13,178)   DRY( 13,179)   DRY( 13,180)   
    DRY( 13,181)   DRY( 13,182)   DRY( 13,183)   DRY( 13,184)   DRY( 13,185)   
    DRY( 13,186)   DRY( 13,187)   DRY( 13,188)   DRY( 13,189)   DRY( 13,190)   
    DRY( 13,191)   DRY( 13,192)   DRY( 13,193)   DRY( 13,194)   DRY( 13,195)   
    DRY( 13,196)   DRY( 13,197)   DRY( 13,198)   DRY( 13,199)   DRY( 13,200)   
    DRY( 13,201)   DRY( 13,202)   DRY( 13,203)   DRY( 13,204)   DRY( 13,205)   
    DRY( 13,206)   DRY( 13,207)   DRY( 13,208)   DRY( 13,209)   DRY( 13,210)   
    DRY( 13,211)   DRY( 13,212)   DRY( 13,213)   DRY( 13,214)   DRY( 13,215)   
    DRY( 13,216)   DRY( 13,217)   DRY( 13,218)   DRY( 13,219)   DRY( 13,220)   
    DRY( 14,  1)   DRY( 14,  2)   DRY( 14,  3)   DRY( 14,  4)   DRY( 14,  5)   
    DRY( 14,  6)   DRY( 14,  7)   DRY( 14,  8)   DRY( 14,  9)   DRY( 14, 10)   
    DRY( 14, 11)   DRY( 14, 12)   DRY( 14, 13)   DRY( 14, 14)   DRY( 14, 15)   
    DRY( 14, 16)   DRY( 14, 17)   DRY( 14, 18)   DRY( 14, 19)   DRY( 14, 20)   
    DRY( 14, 21)   DRY( 14, 22)   DRY( 14, 23)   DRY( 14, 24)   DRY( 14, 25)   
    DRY( 14, 26)   DRY( 14, 27)   DRY( 14, 28)   DRY( 14, 29)   DRY( 14, 30)   
    DRY( 14, 31)   DRY( 14, 32)   DRY( 14, 33)   DRY( 14, 34)   DRY( 14, 35)   
    DRY( 14, 36)   DRY( 14, 37)   DRY( 14, 38)   DRY( 14, 39)   DRY( 14, 40)   
    DRY( 14, 41)   DRY( 14, 42)   DRY( 14, 43)   DRY( 14, 44)   DRY( 14, 45)   
    DRY( 14, 46)   DRY( 14, 47)   DRY( 14, 48)   DRY( 14, 49)   DRY( 14, 50)   
    DRY( 14, 51)   DRY( 14, 52)   DRY( 14, 53)   DRY( 14, 54)   DRY( 14, 55)   
    DRY( 14, 56)   DRY( 14, 57)   DRY( 14, 58)   DRY( 14, 59)   DRY( 14, 60)   
    DRY( 14, 61)   DRY( 14, 62)   DRY( 14, 63)   DRY( 14, 64)   DRY( 14, 65)   
    DRY( 14, 66)   DRY( 14, 67)   DRY( 14, 68)   DRY( 14, 69)   DRY( 14, 70)   
    DRY( 14, 71)   DRY( 14, 72)   DRY( 14, 73)   DRY( 14, 74)   DRY( 14, 75)   
    DRY( 14, 76)   DRY( 14, 77)   DRY( 14, 78)   DRY( 14, 79)   DRY( 14, 80)   
    DRY( 14, 81)   DRY( 14, 82)   DRY( 14, 83)   DRY( 14, 84)   DRY( 14, 85)   
    DRY( 14, 86)   DRY( 14, 87)   DRY( 14, 88)   DRY( 14, 89)   DRY( 14, 90)   
    DRY( 14, 91)   DRY( 14, 92)   DRY( 14, 93)   DRY( 14, 94)   DRY( 14, 95)   
    DRY( 14, 96)   DRY( 14, 97)   DRY( 14, 98)   DRY( 14, 99)   DRY( 14,100)   
    DRY( 14,101)   DRY( 14,102)   DRY( 14,103)   DRY( 14,104)   DRY( 14,105)   
    DRY( 14,106)   DRY( 14,107)   DRY( 14,108)   DRY( 14,109)   DRY( 14,110)   
    DRY( 14,111)   DRY( 14,112)   DRY( 14,113)   DRY( 14,114)   DRY( 14,115)   
    DRY( 14,116)   DRY( 14,117)   DRY( 14,118)   DRY( 14,119)   DRY( 14,120)   
    DRY( 14,121)   DRY( 14,122)   DRY( 14,123)   DRY( 14,124)   DRY( 14,125)   
    DRY( 14,126)   DRY( 14,127)   DRY( 14,128)   DRY( 14,129)   DRY( 14,130)   
    DRY( 14,131)   DRY( 14,132)   DRY( 14,133)   DRY( 14,134)   DRY( 14,135)   
    DRY( 14,136)   DRY( 14,137)   DRY( 14,138)   DRY( 14,139)   DRY( 14,140)   
    DRY( 14,141)   DRY( 14,142)   DRY( 14,143)   DRY( 14,144)   DRY( 14,145)   
    DRY( 14,146)   DRY( 14,147)   DRY( 14,148)   DRY( 14,149)   DRY( 14,150)   
    DRY( 14,151)   DRY( 14,152)   DRY( 14,153)   DRY( 14,154)   DRY( 14,155)   
    DRY( 14,156)   DRY( 14,157)   DRY( 14,158)   DRY( 14,159)   DRY( 14,160)   
    DRY( 14,161)   DRY( 14,162)   DRY( 14,163)   DRY( 14,164)   DRY( 14,165)   
    DRY( 14,166)   DRY( 14,167)   DRY( 14,168)   DRY( 14,169)   DRY( 14,170)   
    DRY( 14,171)   DRY( 14,172)   DRY( 14,173)   DRY( 14,174)   DRY( 14,175)   
    DRY( 14,176)   DRY( 14,177)   DRY( 14,178)   DRY( 14,179)   DRY( 14,180)   
    DRY( 14,181)   DRY( 14,182)   DRY( 14,183)   DRY( 14,184)   DRY( 14,185)   
    DRY( 14,186)   DRY( 14,187)   DRY( 14,188)   DRY( 14,189)   DRY( 14,190)   
    DRY( 14,191)   DRY( 14,192)   DRY( 14,193)   DRY( 14,194)   DRY( 14,195)   
    DRY( 14,196)   DRY( 14,197)   DRY( 14,198)   DRY( 14,199)   DRY( 14,200)   
    DRY( 14,201)   DRY( 14,202)   DRY( 14,203)   DRY( 14,204)   DRY( 14,205)   
    DRY( 14,206)   DRY( 14,207)   DRY( 14,208)   DRY( 14,209)   DRY( 14,210)   
    DRY( 14,211)   DRY( 14,212)   DRY( 14,213)   DRY( 14,214)   DRY( 14,215)   
    DRY( 14,216)   DRY( 14,217)   DRY( 14,218)   DRY( 14,219)   DRY( 14,220)   
    DRY( 15,  1)   DRY( 15,  2)   DRY( 15,  3)   DRY( 15,  4)   DRY( 15,  5)   
    DRY( 15,  6)   DRY( 15,  7)   DRY( 15,  8)   DRY( 15,  9)   DRY( 15, 10)   
    DRY( 15, 11)   DRY( 15, 12)   DRY( 15, 13)   DRY( 15, 14)   DRY( 15, 15)   
    DRY( 15, 16)   DRY( 15, 17)   DRY( 15, 18)   DRY( 15, 19)   DRY( 15, 20)   
    DRY( 15, 21)   DRY( 15, 22)   DRY( 15, 23)   DRY( 15, 24)   DRY( 15, 25)   
    DRY( 15, 26)   DRY( 15, 27)   DRY( 15, 28)   DRY( 15, 29)   DRY( 15, 30)   
    DRY( 15, 31)   DRY( 15, 32)   DRY( 15, 33)   DRY( 15, 34)   DRY( 15, 35)   
    DRY( 15, 36)   DRY( 15, 37)   DRY( 15, 38)   DRY( 15, 39)   DRY( 15, 40)   
    DRY( 15, 41)   DRY( 15, 42)   DRY( 15, 43)   DRY( 15, 44)   DRY( 15, 45)   
    DRY( 15, 46)   DRY( 15, 47)   DRY( 15, 48)   DRY( 15, 49)   DRY( 15, 50)   
    DRY( 15, 51)   DRY( 15, 52)   DRY( 15, 53)   DRY( 15, 54)   DRY( 15, 55)   
    DRY( 15, 56)   DRY( 15, 57)   DRY( 15, 58)   DRY( 15, 59)   DRY( 15, 60)   
    DRY( 15, 61)   DRY( 15, 62)   DRY( 15, 63)   DRY( 15, 64)   DRY( 15, 65)   
    DRY( 15, 66)   DRY( 15, 67)   DRY( 15, 68)   DRY( 15, 69)   DRY( 15, 70)   
    DRY( 15, 71)   DRY( 15, 72)   DRY( 15, 73)   DRY( 15, 74)   DRY( 15, 75)   
    DRY( 15, 76)   DRY( 15, 77)   DRY( 15, 78)   DRY( 15, 79)   DRY( 15, 80)   
    DRY( 15, 81)   DRY( 15, 82)   DRY( 15, 83)   DRY( 15, 84)   DRY( 15, 85)   
    DRY( 15, 86)   DRY( 15, 87)   DRY( 15, 88)   DRY( 15, 89)   DRY( 15, 90)   
    DRY( 15, 91)   DRY( 15, 92)   DRY( 15, 93)   DRY( 15, 94)   DRY( 15, 95)   
    DRY( 15, 96)   DRY( 15, 97)   DRY( 15, 98)   DRY( 15, 99)   DRY( 15,100)   
    DRY( 15,101)   DRY( 15,102)   DRY( 15,103)   DRY( 15,104)   DRY( 15,105)   
    DRY( 15,106)   DRY( 15,107)   DRY( 15,108)   DRY( 15,109)   DRY( 15,110)   
    DRY( 15,111)   DRY( 15,112)   DRY( 15,113)   DRY( 15,114)   DRY( 15,115)   
    DRY( 15,116)   DRY( 15,117)   DRY( 15,118)   DRY( 15,119)   DRY( 15,120)   
    DRY( 15,121)   DRY( 15,122)   DRY( 15,123)   DRY( 15,124)   DRY( 15,125)   
    DRY( 15,126)   DRY( 15,127)   DRY( 15,128)   DRY( 15,129)   DRY( 15,130)   
    DRY( 15,131)   DRY( 15,132)   DRY( 15,133)   DRY( 15,134)   DRY( 15,135)   
    DRY( 15,136)   DRY( 15,137)   DRY( 15,138)   DRY( 15,139)   DRY( 15,140)   
    DRY( 15,141)   DRY( 15,142)   DRY( 15,143)   DRY( 15,144)   DRY( 15,145)   
    DRY( 15,146)   DRY( 15,147)   DRY( 15,148)   DRY( 15,149)   DRY( 15,150)   
    DRY( 15,151)   DRY( 15,152)   DRY( 15,153)   DRY( 15,154)   DRY( 15,155)   
    DRY( 15,156)   DRY( 15,157)   DRY( 15,158)   DRY( 15,159)   DRY( 15,160)   
    DRY( 15,161)   DRY( 15,162)   DRY( 15,163)   DRY( 15,164)   DRY( 15,165)   
    DRY( 15,166)   DRY( 15,167)   DRY( 15,168)   DRY( 15,169)   DRY( 15,170)   
    DRY( 15,171)   DRY( 15,172)   DRY( 15,173)   DRY( 15,174)   DRY( 15,175)   
    DRY( 15,176)   DRY( 15,177)   DRY( 15,178)   DRY( 15,179)   DRY( 15,180)   
    DRY( 15,181)   DRY( 15,182)   DRY( 15,183)   DRY( 15,184)   DRY( 15,185)   
    DRY( 15,186)   DRY( 15,187)   DRY( 15,188)   DRY( 15,189)   DRY( 15,190)   
    DRY( 15,191)   DRY( 15,192)   DRY( 15,193)   DRY( 15,194)   DRY( 15,195)   
    DRY( 15,196)   DRY( 15,197)   DRY( 15,198)   DRY( 15,199)   DRY( 15,200)   
    DRY( 15,201)   DRY( 15,202)   DRY( 15,203)   DRY( 15,204)   DRY( 15,205)   
    DRY( 15,206)   DRY( 15,207)   DRY( 15,208)   DRY( 15,209)   DRY( 15,210)   
    DRY( 15,211)   DRY( 15,212)   DRY( 15,213)   DRY( 15,214)   DRY( 15,215)   
    DRY( 15,216)   DRY( 15,217)   DRY( 15,218)   DRY( 15,219)   DRY( 15,220)   

 CELL CONVERSIONS FOR ITER.=  2  LAYER=  4  STEP=  1  PERIOD=   1   (ROW,COL)
    DRY(  3,  1)   DRY(  3,  2)   DRY(  3,  3)   DRY(  3,  4)   DRY(  3,  5)   
    DRY(  3,  6)   DRY(  3,  7)   DRY(  3,  8)   DRY(  3,  9)   DRY(  3, 10)   
    DRY(  3, 11)   DRY(  3, 12)   DRY(  3, 13)   DRY(  3, 14)   DRY(  3, 15)   
    DRY(  3, 16)   DRY(  3, 17)   DRY(  3, 18)   DRY(  3, 19)   DRY(  3, 20)   
    DRY(  3, 21)   DRY(  3, 22)   DRY(  3, 23)   DRY(  3, 24)   DRY(  3, 25)   
    DRY(  3, 26)   DRY(  3, 27)   DRY(  3, 28)   DRY(  3, 29)   DRY(  3, 30)   
    DRY(  3, 31)   DRY(  3, 32)   DRY(  3, 33)   DRY(  3, 34)   DRY(  3, 35)   
    DRY(  3, 36)   DRY(  3, 37)   DRY(  3, 38)   DRY(  3, 39)   DRY(  3, 40)   
    DRY(  3, 41)   DRY(  3, 42)   DRY(  3, 43)   DRY(  3, 44)   DRY(  3, 45)   
    DRY(  3, 46)   DRY(  3, 47)   DRY(  3, 48)   DRY(  3, 49)   DRY(  3, 50)   
    DRY(  3, 51)   DRY(  3, 52)   DRY(  3, 53)   DRY(  3, 54)   DRY(  3, 55)   
    DRY(  3, 56)   DRY(  3, 57)   DRY(  3, 58)   DRY(  3, 59)   DRY(  3, 60)   
    DRY(  3, 61)   DRY(  3, 62)   DRY(  3, 63)   DRY(  3, 64)   DRY(  3, 65)   
    DRY(  3, 66)   DRY(  3, 67)   DRY(  3, 68)   DRY(  3, 69)   DRY(  3, 70)   
    DRY(  3, 71)   DRY(  3, 72)   DRY(  3, 73)   DRY(  3, 74)   DRY(  3, 75)   
    DRY(  3, 76)   DRY(  3, 77)   DRY(  3, 78)   DRY(  3, 79)   DRY(  3, 80)   
    DRY(  3, 81)   DRY(  3, 82)   DRY(  3, 83)   DRY(  3, 84)   DRY(  3, 85)   
    DRY(  3, 86)   DRY(  3, 87)   DRY(  3, 88)   DRY(  3, 89)   DRY(  3, 90)   
    DRY(  3, 91)   DRY(  3, 92)   DRY(  3, 93)   DRY(  3, 94)   DRY(  3, 95)   
    DRY(  3, 96)   DRY(  3, 97)   DRY(  3, 98)   DRY(  3, 99)   DRY(  3,100)   
    DRY(  3,101)   DRY(  3,102)   DRY(  3,103)   DRY(  3,104)   DRY(  3,105)   
    DRY(  3,106)   DRY(  3,107)   DRY(  3,108)   DRY(  3,109)   DRY(  3,110)   
    DRY(  3,111)   DRY(  3,112)   DRY(  3,113)   DRY(  3,114)   DRY(  3,115)   
    DRY(  3,116)   DRY(  3,117)   DRY(  3,118)   DRY(  3,119)   DRY(  3,120)   
    DRY(  3,121)   DRY(  3,122)   DRY(  3,123)   DRY(  3,124)   DRY(  3,125)   
    DRY(  3,126)   DRY(  3,127)   DRY(  3,128)   DRY(  3,129)   DRY(  3,130)   
    DRY(  3,131)   DRY(  3,132)   DRY(  3,133)   DRY(  3,134)   DRY(  3,135)   
    DRY(  3,136)   DRY(  3,137)   DRY(  3,138)   DRY(  3,139)   DRY(  3,140)   
    DRY(  3,141)   DRY(  3,142)   DRY(  3,143)   DRY(  3,144)   DRY(  3,145)   
    DRY(  3,146)   DRY(  3,147)   DRY(  3,148)   DRY(  3,149)   DRY(  3,150)   
    DRY(  3,151)   DRY(  3,152)   DRY(  3,153)   DRY(  3,154)   DRY(  3,155)   
    DRY(  3,156)   DRY(  3,157)   DRY(  3,158)   DRY(  3,159)   DRY(  3,160)   
    DRY(  3,161)   DRY(  3,162)   DRY(  3,163)   DRY(  3,164)   DRY(  3,165)   
    DRY(  3,166)   DRY(  3,167)   DRY(  3,168)   DRY(  3,169)   DRY(  3,170)   
    DRY(  3,171)   DRY(  3,172)   DRY(  3,173)   DRY(  3,174)   DRY(  3,175)   
    DRY(  3,176)   DRY(  3,177)   DRY(  3,178)   DRY(  3,179)   DRY(  3,180)   
    DRY(  3,181)   DRY(  3,182)   DRY(  3,183)   DRY(  3,184)   DRY(  3,185)   
    DRY(  3,186)   DRY(  3,187)   DRY(  3,188)   DRY(  3,189)   DRY(  3,190)   
    DRY(  3,191)   DRY(  3,192)   DRY(  3,193)   DRY(  3,194)   DRY(  3,195)   
    DRY(  3,196)   DRY(  3,197)   DRY(  3,198)   DRY(  3,199)   DRY(  3,200)   
    DRY(  3,201)   DRY(  3,202)   DRY(  3,203)   DRY(  3,204)   DRY(  3,205)   
    DRY(  3,206)   DRY(  3,207)   DRY(  3,208)   DRY(  3,209)   DRY(  3,210)   
    DRY(  3,211)   DRY(  3,212)   DRY(  3,213)   DRY(  3,214)   DRY(  3,215)   
    DRY(  3,216)   DRY(  3,217)   DRY(  3,218)   DRY(  3,219)   DRY(  3,220)   
    DRY(  4,  1)   DRY(  4,  2)   DRY(  4,  3)   DRY(  4,  4)   DRY(  4,  5)   
    DRY(  4,  6)   DRY(  4,  7)   DRY(  4,  8)   DRY(  4,  9)   DRY(  4, 10)   
    DRY(  4, 11)   DRY(  4, 12)   DRY(  4, 13)   DRY(  4, 14)   DRY(  4, 15)   
    DRY(  4, 16)   DRY(  4, 17)   DRY(  4, 18)   DRY(  4, 19)   DRY(  4, 20)   
    DRY(  4, 21)   DRY(  4, 22)   DRY(  4, 23)   DRY(  4, 24)   DRY(  4, 25)   
    DRY(  4, 26)   DRY(  4, 27)   DRY(  4, 28)   DRY(  4, 29)   DRY(  4, 30)   
    DRY(  4, 31)   DRY(  4, 32)   DRY(  4, 33)   DRY(  4, 34)   DRY(  4, 35)   
    DRY(  4, 36)   DRY(  4, 37)   DRY(  4, 38)   DRY(  4, 39)   DRY(  4, 40)   
    DRY(  4, 41)   DRY(  4, 42)   DRY(  4, 43)   DRY(  4, 44)   DRY(  4, 45)   
    DRY(  4, 46)   DRY(  4, 47)   DRY(  4, 48)   DRY(  4, 49)   DRY(  4, 50)   
    DRY(  4, 51)   DRY(  4, 52)   DRY(  4, 53)   DRY(  4, 54)   DRY(  4, 55)   
    DRY(  4, 56)   DRY(  4, 57)   DRY(  4, 58)   DRY(  4, 59)   DRY(  4, 60)   
    DRY(  4, 61)   DRY(  4, 62)   DRY(  4, 63)   DRY(  4, 64)   DRY(  4, 65)   
    DRY(  4, 66)   DRY(  4, 67)   DRY(  4, 68)   DRY(  4, 69)   DRY(  4, 70)   
    DRY(  4, 71)   DRY(  4, 72)   DRY(  4, 73)   DRY(  4, 74)   DRY(  4, 75)   
    DRY(  4, 76)   DRY(  4, 77)   DRY(  4, 78)   DRY(  4, 79)   DRY(  4, 80)   
    DRY(  4, 81)   DRY(  4, 82)   DRY(  4, 83)   DRY(  4, 84)   DRY(  4, 85)   
    DRY(  4, 86)   DRY(  4, 87)   DRY(  4, 88)   DRY(  4, 89)   DRY(  4, 90)   
    DRY(  4, 91)   DRY(  4, 92)   DRY(  4, 93)   DRY(  4, 94)   DRY(  4, 95)   
    DRY(  4, 96)   DRY(  4, 97)   DRY(  4, 98)   DRY(  4, 99)   DRY(  4,100)   
    DRY(  4,101)   DRY(  4,102)   DRY(  4,103)   DRY(  4,104)   DRY(  4,105)   
    DRY(  4,106)   DRY(  4,107)   DRY(  4,108)   DRY(  4,109)   DRY(  4,110)   
    DRY(  4,111)   DRY(  4,112)   DRY(  4,113)   DRY(  4,114)   DRY(  4,115)   
    DRY(  4,116)   DRY(  4,117)   DRY(  4,118)   DRY(  4,119)   DRY(  4,120)   
    DRY(  4,121)   DRY(  4,122)   DRY(  4,123)   DRY(  4,124)   DRY(  4,125)   
    DRY(  4,126)   DRY(  4,127)   DRY(  4,128)   DRY(  4,129)   DRY(  4,130)   
    DRY(  4,131)   DRY(  4,132)   DRY(  4,133)   DRY(  4,134)   DRY(  4,135)   
    DRY(  4,136)   DRY(  4,137)   DRY(  4,138)   DRY(  4,139)   DRY(  4,140)   
    DRY(  4,141)   DRY(  4,142)   DRY(  4,143)   DRY(  4,144)   DRY(  4,145)   
    DRY(  4,146)   DRY(  4,147)   DRY(  4,148)   DRY(  4,149)   DRY(  4,150)   
    DRY(  4,151)   DRY(  4,152)   DRY(  4,153)   DRY(  4,154)   DRY(  4,155)   
    DRY(  4,156)   DRY(  4,157)   DRY(  4,158)   DRY(  4,159)   DRY(  4,160)   
    DRY(  4,161)   DRY(  4,162)   DRY(  4,163)   DRY(  4,164)   DRY(  4,165)   
    DRY(  4,166)   DRY(  4,167)   DRY(  4,168)   DRY(  4,169)   DRY(  4,170)   
    DRY(  4,171)   DRY(  4,172)   DRY(  4,173)   DRY(  4,174)   DRY(  4,175)   
    DRY(  4,176)   DRY(  4,177)   DRY(  4,178)   DRY(  4,179)   DRY(  4,180)   
    DRY(  4,181)   DRY(  4,182)   DRY(  4,183)   DRY(  4,184)   DRY(  4,185)   
    DRY(  4,186)   DRY(  4,187)   DRY(  4,188)   DRY(  4,189)   DRY(  4,190)   
    DRY(  4,191)   DRY(  4,192)   DRY(  4,193)   DRY(  4,194)   DRY(  4,195)   
    DRY(  4,196)   DRY(  4,197)   DRY(  4,198)   DRY(  4,199)   DRY(  4,200)   
    DRY(  4,201)   DRY(  4,202)   DRY(  4,203)   DRY(  4,204)   DRY(  4,205)   
    DRY(  4,206)   DRY(  4,207)   DRY(  4,208)   DRY(  4,209)   DRY(  4,210)   
    DRY(  4,211)   DRY(  4,212)   DRY(  4,213)   DRY(  4,214)   DRY(  4,215)   
    DRY(  4,216)   DRY(  4,217)   DRY(  4,218)   DRY(  4,219)   DRY(  4,220)   
    DRY(  5,  1)   DRY(  5,  2)   DRY(  5,  3)   DRY(  5,  4)   DRY(  5,  5)   
    DRY(  5,  6)   DRY(  5,  7)   DRY(  5,  8)   DRY(  5,  9)   DRY(  5, 10)   
    DRY(  5, 11)   DRY(  5, 12)   DRY(  5, 13)   DRY(  5, 14)   DRY(  5, 15)   
    DRY(  5, 16)   DRY(  5, 17)   DRY(  5, 18)   DRY(  5, 19)   DRY(  5, 20)   
    DRY(  5, 21)   DRY(  5, 22)   DRY(  5, 23)   DRY(  5, 24)   DRY(  5, 25)   
    DRY(  5, 26)   DRY(  5, 27)   DRY(  5, 28)   DRY(  5, 29)   DRY(  5, 30)   
    DRY(  5, 31)   DRY(  5, 32)   DRY(  5, 33)   DRY(  5, 34)   DRY(  5, 35)   
    DRY(  5, 36)   DRY(  5, 37)   DRY(  5, 38)   DRY(  5, 39)   DRY(  5, 40)   
    DRY(  5, 41)   DRY(  5, 42)   DRY(  5, 43)   DRY(  5, 44)   DRY(  5, 45)   
    DRY(  5, 46)   DRY(  5, 47)   DRY(  5, 48)   DRY(  5, 49)   DRY(  5, 50)   
    DRY(  5, 51)   DRY(  5, 52)   DRY(  5, 53)   DRY(  5, 54)   DRY(  5, 55)   
    DRY(  5, 56)   DRY(  5, 57)   DRY(  5, 58)   DRY(  5, 59)   DRY(  5, 60)   
    DRY(  5, 61)   DRY(  5, 62)   DRY(  5, 63)   DRY(  5, 64)   DRY(  5, 65)   
    DRY(  5, 66)   DRY(  5, 67)   DRY(  5, 68)   DRY(  5, 69)   DRY(  5, 70)   
    DRY(  5, 71)   DRY(  5, 72)   DRY(  5, 73)   DRY(  5, 74)   DRY(  5, 75)   
    DRY(  5, 76)   DRY(  5, 77)   DRY(  5, 78)   DRY(  5, 79)   DRY(  5, 80)   
    DRY(  5, 81)   DRY(  5, 82)   DRY(  5, 83)   DRY(  5, 84)   DRY(  5, 85)   
    DRY(  5, 86)   DRY(  5, 87)   DRY(  5, 88)   DRY(  5, 89)   DRY(  5, 90)   
    DRY(  5, 91)   DRY(  5, 92)   DRY(  5, 93)   DRY(  5, 94)   DRY(  5, 95)   
    DRY(  5, 96)   DRY(  5, 97)   DRY(  5, 98)   DRY(  5, 99)   DRY(  5,100)   
    DRY(  5,101)   DRY(  5,102)   DRY(  5,103)   DRY(  5,104)   DRY(  5,105)   
    DRY(  5,106)   DRY(  5,107)   DRY(  5,108)   DRY(  5,109)   DRY(  5,110)   
    DRY(  5,111)   DRY(  5,112)   DRY(  5,113)   DRY(  5,114)   DRY(  5,115)   
    DRY(  5,116)   DRY(  5,117)   DRY(  5,118)   DRY(  5,119)   DRY(  5,120)   
    DRY(  5,121)   DRY(  5,122)   DRY(  5,123)   DRY(  5,124)   DRY(  5,125)   
    DRY(  5,126)   DRY(  5,127)   DRY(  5,128)   DRY(  5,129)   DRY(  5,130)   
    DRY(  5,131)   DRY(  5,132)   DRY(  5,133)   DRY(  5,134)   DRY(  5,135)   
    DRY(  5,136)   DRY(  5,137)   DRY(  5,138)   DRY(  5,139)   DRY(  5,140)   
    DRY(  5,141)   DRY(  5,142)   DRY(  5,143)   DRY(  5,144)   DRY(  5,145)   
    DRY(  5,146)   DRY(  5,147)   DRY(  5,148)   DRY(  5,149)   DRY(  5,150)   
    DRY(  5,151)   DRY(  5,152)   DRY(  5,153)   DRY(  5,154)   DRY(  5,155)   
    DRY(  5,156)   DRY(  5,157)   DRY(  5,158)   DRY(  5,159)   DRY(  5,160)   
    DRY(  5,161)   DRY(  5,162)   DRY(  5,163)   DRY(  5,164)   DRY(  5,165)   
    DRY(  5,166)   DRY(  5,167)   DRY(  5,168)   DRY(  5,169)   DRY(  5,170)   
    DRY(  5,171)   DRY(  5,172)   DRY(  5,173)   DRY(  5,174)   DRY(  5,175)   
    DRY(  5,176)   DRY(  5,177)   DRY(  5,178)   DRY(  5,179)   DRY(  5,180)   
    DRY(  5,181)   DRY(  5,182)   DRY(  5,183)   DRY(  5,184)   DRY(  5,185)   
    DRY(  5,186)   DRY(  5,187)   DRY(  5,188)   DRY(  5,189)   DRY(  5,190)   
    DRY(  5,191)   DRY(  5,192)   DRY(  5,193)   DRY(  5,194)   DRY(  5,195)   
    DRY(  5,196)   DRY(  5,197)   DRY(  5,198)   DRY(  5,199)   DRY(  5,200)   
    DRY(  5,201)   DRY(  5,202)   DRY(  5,203)   DRY(  5,204)   DRY(  5,205)   
    DRY(  5,206)   DRY(  5,207)   DRY(  5,208)   DRY(  5,209)   DRY(  5,210)   
    DRY(  5,211)   DRY(  5,212)   DRY(  5,213)   DRY(  5,214)   DRY(  5,215)   
    DRY(  5,216)   DRY(  5,217)   DRY(  5,218)   DRY(  5,219)   DRY(  5,220)   
    DRY(  6,  1)   DRY(  6,  2)   DRY(  6,  3)   DRY(  6,  4)   DRY(  6,  5)   
    DRY(  6,  6)   DRY(  6,  7)   DRY(  6,  8)   DRY(  6,  9)   DRY(  6, 10)   
    DRY(  6, 11)   DRY(  6, 12)   DRY(  6, 13)   DRY(  6, 14)   DRY(  6, 15)   
    DRY(  6, 16)   DRY(  6, 17)   DRY(  6, 18)   DRY(  6, 19)   DRY(  6, 20)   
    DRY(  6, 21)   DRY(  6, 22)   DRY(  6, 23)   DRY(  6, 24)   DRY(  6, 25)   
    DRY(  6, 26)   DRY(  6, 27)   DRY(  6, 28)   DRY(  6, 29)   DRY(  6, 30)   
    DRY(  6, 31)   DRY(  6, 32)   DRY(  6, 33)   DRY(  6, 34)   DRY(  6, 35)   
    DRY(  6, 36)   DRY(  6, 37)   DRY(  6, 38)   DRY(  6, 39)   DRY(  6, 40)   
    DRY(  6, 41)   DRY(  6, 42)   DRY(  6, 43)   DRY(  6, 44)   DRY(  6, 45)   
    DRY(  6, 46)   DRY(  6, 47)   DRY(  6, 48)   DRY(  6, 49)   DRY(  6, 50)   
    DRY(  6, 51)   DRY(  6, 52)   DRY(  6, 53)   DRY(  6, 54)   DRY(  6, 55)   
    DRY(  6, 56)   DRY(  6, 57)   DRY(  6, 58)   DRY(  6, 59)   DRY(  6, 60)   
    DRY(  6, 61)   DRY(  6, 62)   DRY(  6, 63)   DRY(  6, 64)   DRY(  6, 65)   
    DRY(  6, 66)   DRY(  6, 67)   DRY(  6, 68)   DRY(  6, 69)   DRY(  6, 70)   
    DRY(  6, 71)   DRY(  6, 72)   DRY(  6, 73)   DRY(  6, 74)   DRY(  6, 75)   
    DRY(  6, 76)   DRY(  6, 77)   DRY(  6, 78)   DRY(  6, 79)   DRY(  6, 80)   
    DRY(  6, 81)   DRY(  6, 82)   DRY(  6, 83)   DRY(  6, 84)   DRY(  6, 85)   
    DRY(  6, 86)   DRY(  6, 87)   DRY(  6, 88)   DRY(  6, 89)   DRY(  6, 90)   
    DRY(  6, 91)   DRY(  6, 92)   DRY(  6, 93)   DRY(  6, 94)   DRY(  6, 95)   
    DRY(  6, 96)   DRY(  6, 97)   DRY(  6, 98)   DRY(  6, 99)   DRY(  6,100)   
    DRY(  6,101)   DRY(  6,102)   DRY(  6,103)   DRY(  6,104)   DRY(  6,105)   
    DRY(  6,106)   DRY(  6,107)   DRY(  6,108)   DRY(  6,109)   DRY(  6,110)   
    DRY(  6,111)   DRY(  6,112)   DRY(  6,113)   DRY(  6,114)   DRY(  6,115)   
    DRY(  6,116)   DRY(  6,117)   DRY(  6,118)   DRY(  6,119)   DRY(  6,120)   
    DRY(  6,121)   DRY(  6,122)   DRY(  6,123)   DRY(  6,124)   DRY(  6,125)   
    DRY(  6,126)   DRY(  6,127)   DRY(  6,128)   DRY(  6,129)   DRY(  6,130)   
    DRY(  6,131)   DRY(  6,132)   DRY(  6,133)   DRY(  6,134)   DRY(  6,135)   
    DRY(  6,136)   DRY(  6,137)   DRY(  6,138)   DRY(  6,139)   DRY(  6,140)   
    DRY(  6,141)   DRY(  6,142)   DRY(  6,143)   DRY(  6,144)   DRY(  6,145)   
    DRY(  6,146)   DRY(  6,147)   DRY(  6,148)   DRY(  6,149)   DRY(  6,150)   
    DRY(  6,151)   DRY(  6,152)   DRY(  6,153)   DRY(  6,154)   DRY(  6,155)   
    DRY(  6,156)   DRY(  6,157)   DRY(  6,158)   DRY(  6,159)   DRY(  6,160)   
    DRY(  6,161)   DRY(  6,162)   DRY(  6,163)   DRY(  6,164)   DRY(  6,165)   
    DRY(  6,166)   DRY(  6,167)   DRY(  6,168)   DRY(  6,169)   DRY(  6,170)   
    DRY(  6,171)   DRY(  6,172)   DRY(  6,173)   DRY(  6,174)   DRY(  6,175)   
    DRY(  6,176)   DRY(  6,177)   DRY(  6,178)   DRY(  6,179)   DRY(  6,180)   
    DRY(  6,181)   DRY(  6,182)   DRY(  6,183)   DRY(  6,184)   DRY(  6,185)   
    DRY(  6,186)   DRY(  6,187)   DRY(  6,188)   DRY(  6,189)   DRY(  6,190)   
    DRY(  6,191)   DRY(  6,192)   DRY(  6,193)   DRY(  6,194)   DRY(  6,195)   
    DRY(  6,196)   DRY(  6,197)   DRY(  6,198)   DRY(  6,199)   DRY(  6,200)   
    DRY(  6,201)   DRY(  6,202)   DRY(  6,203)   DRY(  6,204)   DRY(  6,205)   
    DRY(  6,206)   DRY(  6,207)   DRY(  6,208)   DRY(  6,209)   DRY(  6,210)   
    DRY(  6,211)   DRY(  6,212)   DRY(  6,213)   DRY(  6,214)   DRY(  6,215)   
    DRY(  6,216)   DRY(  6,217)   DRY(  6,218)   DRY(  6,219)   DRY(  6,220)   
    DRY(  7,  1)   DRY(  7,  2)   DRY(  7,  3)   DRY(  7,  4)   DRY(  7,  5)   
    DRY(  7,  6)   DRY(  7,  7)   DRY(  7,  8)   DRY(  7,  9)   DRY(  7, 10)   
    DRY(  7, 11)   DRY(  7, 12)   DRY(  7, 13)   DRY(  7, 14)   DRY(  7, 15)   
    DRY(  7, 16)   DRY(  7, 17)   DRY(  7, 18)   DRY(  7, 19)   DRY(  7, 20)   
    DRY(  7, 21)   DRY(  7, 22)   DRY(  7, 23)   DRY(  7, 24)   DRY(  7, 25)   
    DRY(  7, 26)   DRY(  7, 27)   DRY(  7, 28)   DRY(  7, 29)   DRY(  7, 30)   
    DRY(  7, 31)   DRY(  7, 32)   DRY(  7, 33)   DRY(  7, 34)   DRY(  7, 35)   
    DRY(  7, 36)   DRY(  7, 37)   DRY(  7, 38)   DRY(  7, 39)   DRY(  7, 40)   
    DRY(  7, 41)   DRY(  7, 42)   DRY(  7, 43)   DRY(  7, 44)   DRY(  7, 45)   
    DRY(  7, 46)   DRY(  7, 47)   DRY(  7, 48)   DRY(  7, 49)   DRY(  7, 50)   
    DRY(  7, 51)   DRY(  7, 52)   DRY(  7, 53)   DRY(  7, 54)   DRY(  7, 55)   
    DRY(  7, 56)   DRY(  7, 57)   DRY(  7, 58)   DRY(  7, 59)   DRY(  7, 60)   
    DRY(  7, 61)   DRY(  7, 62)   DRY(  7, 63)   DRY(  7, 64)   DRY(  7, 65)   
    DRY(  7, 66)   DRY(  7, 67)   DRY(  7, 68)   DRY(  7, 69)   DRY(  7, 70)   
    DRY(  7, 71)   DRY(  7, 72)   DRY(  7, 73)   DRY(  7, 74)   DRY(  7, 75)   
    DRY(  7, 76)   DRY(  7, 77)   DRY(  7, 78)   DRY(  7, 79)   DRY(  7, 80)   
    DRY(  7, 81)   DRY(  7, 82)   DRY(  7, 83)   DRY(  7, 84)   DRY(  7, 85)   
    DRY(  7, 86)   DRY(  7, 87)   DRY(  7, 88)   DRY(  7, 89)   DRY(  7, 90)   
    DRY(  7, 91)   DRY(  7, 92)   DRY(  7, 93)   DRY(  7, 94)   DRY(  7, 95)   
    DRY(  7, 96)   DRY(  7, 97)   DRY(  7, 98)   DRY(  7, 99)   DRY(  7,100)   
    DRY(  7,101)   DRY(  7,102)   DRY(  7,103)   DRY(  7,104)   DRY(  7,105)   
    DRY(  7,106)   DRY(  7,107)   DRY(  7,108)   DRY(  7,109)   DRY(  7,110)   
    DRY(  7,111)   DRY(  7,112)   DRY(  7,113)   DRY(  7,114)   DRY(  7,115)   
    DRY(  7,116)   DRY(  7,117)   DRY(  7,118)   DRY(  7,119)   DRY(  7,120)   
    DRY(  7,121)   DRY(  7,122)   DRY(  7,123)   DRY(  7,124)   DRY(  7,125)   
    DRY(  7,126)   DRY(  7,127)   DRY(  7,128)   DRY(  7,129)   DRY(  7,130)   
    DRY(  7,131)   DRY(  7,132)   DRY(  7,133)   DRY(  7,134)   DRY(  7,135)   
    DRY(  7,136)   DRY(  7,137)   DRY(  7,138)   DRY(  7,139)   DRY(  7,140)   
    DRY(  7,141)   DRY(  7,142)   DRY(  7,143)   DRY(  7,144)   DRY(  7,145)   
    DRY(  7,146)   DRY(  7,147)   DRY(  7,148)   DRY(  7,149)   DRY(  7,150)   
    DRY(  7,151)   DRY(  7,152)   DRY(  7,153)   DRY(  7,154)   DRY(  7,155)   
    DRY(  7,156)   DRY(  7,157)   DRY(  7,158)   DRY(  7,159)   DRY(  7,160)   
    DRY(  7,161)   DRY(  7,162)   DRY(  7,163)   DRY(  7,164)   DRY(  7,165)   
    DRY(  7,166)   DRY(  7,167)   DRY(  7,168)   DRY(  7,169)   DRY(  7,170)   
    DRY(  7,171)   DRY(  7,172)   DRY(  7,173)   DRY(  7,174)   DRY(  7,175)   
    DRY(  7,176)   DRY(  7,177)   DRY(  7,178)   DRY(  7,179)   DRY(  7,180)   
    DRY(  7,181)   DRY(  7,182)   DRY(  7,183)   DRY(  7,184)   DRY(  7,185)   
    DRY(  7,186)   DRY(  7,187)   DRY(  7,188)   DRY(  7,189)   DRY(  7,190)   
    DRY(  7,191)   DRY(  7,192)   DRY(  7,193)   DRY(  7,194)   DRY(  7,195)   
    DRY(  7,196)   DRY(  7,197)   DRY(  7,198)   DRY(  7,199)   DRY(  7,200)   
    DRY(  7,201)   DRY(  7,202)   DRY(  7,203)   DRY(  7,204)   DRY(  7,205)   
    DRY(  7,206)   DRY(  7,207)   DRY(  7,208)   DRY(  7,209)   DRY(  7,210)   
    DRY(  7,211)   DRY(  7,212)   DRY(  7,213)   DRY(  7,214)   DRY(  7,215)   
    DRY(  7,216)   DRY(  7,217)   DRY(  7,218)   DRY(  7,219)   DRY(  7,220)   
    DRY(  8,  1)   DRY(  8,  2)   DRY(  8,  3)   DRY(  8,  4)   DRY(  8,  5)   
    DRY(  8,  6)   DRY(  8,  7)   DRY(  8,  8)   DRY(  8,  9)   DRY(  8, 10)   
    DRY(  8, 11)   DRY(  8, 12)   DRY(  8, 13)   DRY(  8, 14)   DRY(  8, 15)   
    DRY(  8, 16)   DRY(  8, 17)   DRY(  8, 18)   DRY(  8, 19)   DRY(  8, 20)   
    DRY(  8, 21)   DRY(  8, 22)   DRY(  8, 23)   DRY(  8, 24)   DRY(  8, 25)   
    DRY(  8, 26)   DRY(  8, 27)   DRY(  8, 28)   DRY(  8, 29)   DRY(  8, 30)   
    DRY(  8, 31)   DRY(  8, 32)   DRY(  8, 33)   DRY(  8, 34)   DRY(  8, 35)   
    DRY(  8, 36)   DRY(  8, 37)   DRY(  8, 38)   DRY(  8, 39)   DRY(  8, 40)   
    DRY(  8, 41)   DRY(  8, 42)   DRY(  8, 43)   DRY(  8, 44)   DRY(  8, 45)   
    DRY(  8, 46)   DRY(  8, 47)   DRY(  8, 48)   DRY(  8, 49)   DRY(  8, 50)   
    DRY(  8, 51)   DRY(  8, 52)   DRY(  8, 53)   DRY(  8, 54)   DRY(  8, 55)   
    DRY(  8, 56)   DRY(  8, 57)   DRY(  8, 58)   DRY(  8, 59)   DRY(  8, 60)   
    DRY(  8, 61)   DRY(  8, 62)   DRY(  8, 63)   DRY(  8, 64)   DRY(  8, 65)   
    DRY(  8, 66)   DRY(  8, 67)   DRY(  8, 68)   DRY(  8, 69)   DRY(  8, 70)   
    DRY(  8, 71)   DRY(  8, 72)   DRY(  8, 73)   DRY(  8, 74)   DRY(  8, 75)   
    DRY(  8, 76)   DRY(  8, 77)   DRY(  8, 78)   DRY(  8, 79)   DRY(  8, 80)   
    DRY(  8, 81)   DRY(  8, 82)   DRY(  8, 83)   DRY(  8, 84)   DRY(  8, 85)   
    DRY(  8, 86)   DRY(  8, 87)   DRY(  8, 88)   DRY(  8, 89)   DRY(  8, 90)   
    DRY(  8, 91)   DRY(  8, 92)   DRY(  8, 93)   DRY(  8, 94)   DRY(  8, 95)   
    DRY(  8, 96)   DRY(  8, 97)   DRY(  8, 98)   DRY(  8, 99)   DRY(  8,100)   
    DRY(  8,101)   DRY(  8,102)   DRY(  8,103)   DRY(  8,104)   DRY(  8,105)   
    DRY(  8,106)   DRY(  8,107)   DRY(  8,108)   DRY(  8,109)   DRY(  8,110)   
    DRY(  8,111)   DRY(  8,112)   DRY(  8,113)   DRY(  8,114)   DRY(  8,115)   
    DRY(  8,116)   DRY(  8,117)   DRY(  8,118)   DRY(  8,119)   DRY(  8,120)   
    DRY(  8,121)   DRY(  8,122)   DRY(  8,123)   DRY(  8,124)   DRY(  8,125)   
    DRY(  8,126)   DRY(  8,127)   DRY(  8,128)   DRY(  8,129)   DRY(  8,130)   
    DRY(  8,131)   DRY(  8,132)   DRY(  8,133)   DRY(  8,134)   DRY(  8,135)   
    DRY(  8,136)   DRY(  8,137)   DRY(  8,138)   DRY(  8,139)   DRY(  8,140)   
    DRY(  8,141)   DRY(  8,142)   DRY(  8,143)   DRY(  8,144)   DRY(  8,145)   
    DRY(  8,146)   DRY(  8,147)   DRY(  8,148)   DRY(  8,149)   DRY(  8,150)   
    DRY(  8,151)   DRY(  8,152)   DRY(  8,153)   DRY(  8,154)   DRY(  8,155)   
    DRY(  8,156)   DRY(  8,157)   DRY(  8,158)   DRY(  8,159)   DRY(  8,160)   
    DRY(  8,161)   DRY(  8,162)   DRY(  8,163)   DRY(  8,164)   DRY(  8,165)   
    DRY(  8,166)   DRY(  8,167)   DRY(  8,168)   DRY(  8,169)   DRY(  8,170)   
    DRY(  8,171)   DRY(  8,172)   DRY(  8,173)   DRY(  8,174)   DRY(  8,175)   
    DRY(  8,176)   DRY(  8,177)   DRY(  8,178)   DRY(  8,179)   DRY(  8,180)   
    DRY(  8,181)   DRY(  8,182)   DRY(  8,183)   DRY(  8,184)   DRY(  8,185)   
    DRY(  8,186)   DRY(  8,187)   DRY(  8,188)   DRY(  8,189)   DRY(  8,190)   
    DRY(  8,191)   DRY(  8,192)   DRY(  8,193)   DRY(  8,194)   DRY(  8,195)   
    DRY(  8,196)   DRY(  8,197)   DRY(  8,198)   DRY(  8,199)   DRY(  8,200)   
    DRY(  8,201)   DRY(  8,202)   DRY(  8,203)   DRY(  8,204)   DRY(  8,205)   
    DRY(  8,206)   DRY(  8,207)   DRY(  8,208)   DRY(  8,209)   DRY(  8,210)   
    DRY(  8,211)   DRY(  8,212)   DRY(  8,213)   DRY(  8,214)   DRY(  8,215)   
    DRY(  8,216)   DRY(  8,217)   DRY(  8,218)   DRY(  8,219)   DRY(  8,220)   
    DRY(  9,  1)   DRY(  9,  2)   DRY(  9,  3)   DRY(  9,  4)   DRY(  9,  5)   
    DRY(  9,  6)   DRY(  9,  7)   DRY(  9,  8)   DRY(  9,  9)   DRY(  9, 10)   
    DRY(  9, 11)   DRY(  9, 12)   DRY(  9, 13)   DRY(  9, 14)   DRY(  9, 15)   
    DRY(  9, 16)   DRY(  9, 17)   DRY(  9, 18)   DRY(  9, 19)   DRY(  9, 20)   
    DRY(  9, 21)   DRY(  9, 22)   DRY(  9, 23)   DRY(  9, 24)   DRY(  9, 25)   
    DRY(  9, 26)   DRY(  9, 27)   DRY(  9, 28)   DRY(  9, 29)   DRY(  9, 30)   
    DRY(  9, 31)   DRY(  9, 32)   DRY(  9, 33)   DRY(  9, 34)   DRY(  9, 35)   
    DRY(  9, 36)   DRY(  9, 37)   DRY(  9, 38)   DRY(  9, 39)   DRY(  9, 40)   
    DRY(  9, 41)   DRY(  9, 42)   DRY(  9, 43)   DRY(  9, 44)   DRY(  9, 45)   
    DRY(  9, 46)   DRY(  9, 47)   DRY(  9, 48)   DRY(  9, 49)   DRY(  9, 50)   
    DRY(  9, 51)   DRY(  9, 52)   DRY(  9, 53)   DRY(  9, 54)   DRY(  9, 55)   
    DRY(  9, 56)   DRY(  9, 57)   DRY(  9, 58)   DRY(  9, 59)   DRY(  9, 60)   
    DRY(  9, 61)   DRY(  9, 62)   DRY(  9, 63)   DRY(  9, 64)   DRY(  9, 65)   
    DRY(  9, 66)   DRY(  9, 67)   DRY(  9, 68)   DRY(  9, 69)   DRY(  9, 70)   
    DRY(  9, 71)   DRY(  9, 72)   DRY(  9, 73)   DRY(  9, 74)   DRY(  9, 75)   
    DRY(  9, 76)   DRY(  9, 77)   DRY(  9, 78)   DRY(  9, 79)   DRY(  9, 80)   
    DRY(  9, 81)   DRY(  9, 82)   DRY(  9, 83)   DRY(  9, 84)   DRY(  9, 85)   
    DRY(  9, 86)   DRY(  9, 87)   DRY(  9, 88)   DRY(  9, 89)   DRY(  9, 90)   
    DRY(  9, 91)   DRY(  9, 92)   DRY(  9, 93)   DRY(  9, 94)   DRY(  9, 95)   
    DRY(  9, 96)   DRY(  9, 97)   DRY(  9, 98)   DRY(  9, 99)   DRY(  9,100)   
    DRY(  9,101)   DRY(  9,102)   DRY(  9,103)   DRY(  9,104)   DRY(  9,105)   
    DRY(  9,106)   DRY(  9,107)   DRY(  9,108)   DRY(  9,109)   DRY(  9,110)   
    DRY(  9,111)   DRY(  9,112)   DRY(  9,113)   DRY(  9,114)   DRY(  9,115)   
    DRY(  9,116)   DRY(  9,117)   DRY(  9,118)   DRY(  9,119)   DRY(  9,120)   
    DRY(  9,121)   DRY(  9,122)   DRY(  9,123)   DRY(  9,124)   DRY(  9,125)   
    DRY(  9,126)   DRY(  9,127)   DRY(  9,128)   DRY(  9,129)   DRY(  9,130)   
    DRY(  9,131)   DRY(  9,132)   DRY(  9,133)   DRY(  9,134)   DRY(  9,135)   
    DRY(  9,136)   DRY(  9,137)   DRY(  9,138)   DRY(  9,139)   DRY(  9,140)   
    DRY(  9,141)   DRY(  9,142)   DRY(  9,143)   DRY(  9,144)   DRY(  9,145)   
    DRY(  9,146)   DRY(  9,147)   DRY(  9,148)   DRY(  9,149)   DRY(  9,150)   
    DRY(  9,151)   DRY(  9,152)   DRY(  9,153)   DRY(  9,154)   DRY(  9,155)   
    DRY(  9,156)   DRY(  9,157)   DRY(  9,158)   DRY(  9,159)   DRY(  9,160)   
    DRY(  9,161)   DRY(  9,162)   DRY(  9,163)   DRY(  9,164)   DRY(  9,165)   
    DRY(  9,166)   DRY(  9,167)   DRY(  9,168)   DRY(  9,169)   DRY(  9,170)   
    DRY(  9,171)   DRY(  9,172)   DRY(  9,173)   DRY(  9,174)   DRY(  9,175)   
    DRY(  9,176)   DRY(  9,177)   DRY(  9,178)   DRY(  9,179)   DRY(  9,180)   
    DRY(  9,181)   DRY(  9,182)   DRY(  9,183)   DRY(  9,184)   DRY(  9,185)   
    DRY(  9,186)   DRY(  9,187)   DRY(  9,188)   DRY(  9,189)   DRY(  9,190)   
    DRY(  9,191)   DRY(  9,192)   DRY(  9,193)   DRY(  9,194)   DRY(  9,195)   
    DRY(  9,196)   DRY(  9,197)   DRY(  9,198)   DRY(  9,199)   DRY(  9,200)   
    DRY(  9,201)   DRY(  9,202)   DRY(  9,203)   DRY(  9,204)   DRY(  9,205)   
    DRY(  9,206)   DRY(  9,207)   DRY(  9,208)   DRY(  9,209)   DRY(  9,210)   
    DRY(  9,211)   DRY(  9,212)   DRY(  9,213)   DRY(  9,214)   DRY(  9,215)   
    DRY(  9,216)   DRY(  9,217)   DRY(  9,218)   DRY(  9,219)   DRY(  9,220)   
    DRY( 10,  1)   DRY( 10,  2)   DRY( 10,  3)   DRY( 10,  4)   DRY( 10,  5)   
    DRY( 10,  6)   DRY( 10,  7)   DRY( 10,  8)   DRY( 10,  9)   DRY( 10, 10)   
    DRY( 10, 11)   DRY( 10, 12)   DRY( 10, 13)   DRY( 10, 14)   DRY( 10, 15)   
    DRY( 10, 16)   DRY( 10, 17)   DRY( 10, 18)   DRY( 10, 19)   DRY( 10, 20)   
    DRY( 10, 21)   DRY( 10, 22)   DRY( 10, 23)   DRY( 10, 24)   DRY( 10, 25)   
    DRY( 10, 26)   DRY( 10, 27)   DRY( 10, 28)   DRY( 10, 29)   DRY( 10, 30)   
    DRY( 10, 31)   DRY( 10, 32)   DRY( 10, 33)   DRY( 10, 34)   DRY( 10, 35)   
    DRY( 10, 36)   DRY( 10, 37)   DRY( 10, 38)   DRY( 10, 39)   DRY( 10, 40)   
    DRY( 10, 41)   DRY( 10, 42)   DRY( 10, 43)   DRY( 10, 44)   DRY( 10, 45)   
    DRY( 10, 46)   DRY( 10, 47)   DRY( 10, 48)   DRY( 10, 49)   DRY( 10, 50)   
    DRY( 10, 51)   DRY( 10, 52)   DRY( 10, 53)   DRY( 10, 54)   DRY( 10, 55)   
    DRY( 10, 56)   DRY( 10, 57)   DRY( 10, 58)   DRY( 10, 59)   DRY( 10, 60)   
    DRY( 10, 61)   DRY( 10, 62)   DRY( 10, 63)   DRY( 10, 64)   DRY( 10, 65)   
    DRY( 10, 66)   DRY( 10, 67)   DRY( 10, 68)   DRY( 10, 69)   DRY( 10, 70)   
    DRY( 10, 71)   DRY( 10, 72)   DRY( 10, 73)   DRY( 10, 74)   DRY( 10, 75)   
    DRY( 10, 76)   DRY( 10, 77)   DRY( 10, 78)   DRY( 10, 79)   DRY( 10, 80)   
    DRY( 10, 81)   DRY( 10, 82)   DRY( 10, 83)   DRY( 10, 84)   DRY( 10, 85)   
    DRY( 10, 86)   DRY( 10, 87)   DRY( 10, 88)   DRY( 10, 89)   DRY( 10, 90)   
    DRY( 10, 91)   DRY( 10, 92)   DRY( 10, 93)   DRY( 10, 94)   DRY( 10, 95)   
    DRY( 10, 96)   DRY( 10, 97)   DRY( 10, 98)   DRY( 10, 99)   DRY( 10,100)   
    DRY( 10,101)   DRY( 10,102)   DRY( 10,103)   DRY( 10,104)   DRY( 10,105)   
    DRY( 10,106)   DRY( 10,107)   DRY( 10,108)   DRY( 10,109)   DRY( 10,110)   
    DRY( 10,111)   DRY( 10,112)   DRY( 10,113)   DRY( 10,114)   DRY( 10,115)   
    DRY( 10,116)   DRY( 10,117)   DRY( 10,118)   DRY( 10,119)   DRY( 10,120)   
    DRY( 10,121)   DRY( 10,122)   DRY( 10,123)   DRY( 10,124)   DRY( 10,125)   
    DRY( 10,126)   DRY( 10,127)   DRY( 10,128)   DRY( 10,129)   DRY( 10,130)   
    DRY( 10,131)   DRY( 10,132)   DRY( 10,133)   DRY( 10,134)   DRY( 10,135)   
    DRY( 10,136)   DRY( 10,137)   DRY( 10,138)   DRY( 10,139)   DRY( 10,140)   
    DRY( 10,141)   DRY( 10,142)   DRY( 10,143)   DRY( 10,144)   DRY( 10,145)   
    DRY( 10,146)   DRY( 10,147)   DRY( 10,148)   DRY( 10,149)   DRY( 10,150)   
    DRY( 10,151)   DRY( 10,152)   DRY( 10,153)   DRY( 10,154)   DRY( 10,155)   
    DRY( 10,156)   DRY( 10,157)   DRY( 10,158)   DRY( 10,159)   DRY( 10,160)   
    DRY( 10,161)   DRY( 10,162)   DRY( 10,163)   DRY( 10,164)   DRY( 10,165)   
    DRY( 10,166)   DRY( 10,167)   DRY( 10,168)   DRY( 10,169)   DRY( 10,170)   
    DRY( 10,171)   DRY( 10,172)   DRY( 10,173)   DRY( 10,174)   DRY( 10,175)   
    DRY( 10,176)   DRY( 10,177)   DRY( 10,178)   DRY( 10,179)   DRY( 10,180)   
    DRY( 10,181)   DRY( 10,182)   DRY( 10,183)   DRY( 10,184)   DRY( 10,185)   
    DRY( 10,186)   DRY( 10,187)   DRY( 10,188)   DRY( 10,189)   DRY( 10,190)   
    DRY( 10,191)   DRY( 10,192)   DRY( 10,193)   DRY( 10,194)   DRY( 10,195)   
    DRY( 10,196)   DRY( 10,197)   DRY( 10,198)   DRY( 10,199)   DRY( 10,200)   
    DRY( 10,201)   DRY( 10,202)   DRY( 10,203)   DRY( 10,204)   DRY( 10,205)   
    DRY( 10,206)   DRY( 10,207)   DRY( 10,208)   DRY( 10,209)   DRY( 10,210)   
    DRY( 10,211)   DRY( 10,212)   DRY( 10,213)   DRY( 10,214)   DRY( 10,215)   
    DRY( 10,216)   DRY( 10,217)   DRY( 10,218)   DRY( 10,219)   DRY( 10,220)   
    DRY( 11,  1)   DRY( 11,  2)   DRY( 11,  3)   DRY( 11,  4)   DRY( 11,  5)   
    DRY( 11,  6)   DRY( 11,  7)   DRY( 11,  8)   DRY( 11,  9)   DRY( 11, 10)   
    DRY( 11, 11)   DRY( 11, 12)   DRY( 11, 13)   DRY( 11, 14)   DRY( 11, 15)   
    DRY( 11, 16)   DRY( 11, 17)   DRY( 11, 18)   DRY( 11, 19)   DRY( 11, 20)   
    DRY( 11, 21)   DRY( 11, 22)   DRY( 11, 23)   DRY( 11, 24)   DRY( 11, 25)   
    DRY( 11, 26)   DRY( 11, 27)   DRY( 11, 28)   DRY( 11, 29)   DRY( 11, 30)   
    DRY( 11, 31)   DRY( 11, 32)   DRY( 11, 33)   DRY( 11, 34)   DRY( 11, 35)   
    DRY( 11, 36)   DRY( 11, 37)   DRY( 11, 38)   DRY( 11, 39)   DRY( 11, 40)   
    DRY( 11, 41)   DRY( 11, 42)   DRY( 11, 43)   DRY( 11, 44)   DRY( 11, 45)   
    DRY( 11, 46)   DRY( 11, 47)   DRY( 11, 48)   DRY( 11, 49)   DRY( 11, 50)   
    DRY( 11, 51)   DRY( 11, 52)   DRY( 11, 53)   DRY( 11, 54)   DRY( 11, 55)   
    DRY( 11, 56)   DRY( 11, 57)   DRY( 11, 58)   DRY( 11, 59)   DRY( 11, 60)   
    DRY( 11, 61)   DRY( 11, 62)   DRY( 11, 63)   DRY( 11, 64)   DRY( 11, 65)   
    DRY( 11, 66)   DRY( 11, 67)   DRY( 11, 68)   DRY( 11, 69)   DRY( 11, 70)   
    DRY( 11, 71)   DRY( 11, 72)   DRY( 11, 73)   DRY( 11, 74)   DRY( 11, 75)   
    DRY( 11, 76)   DRY( 11, 77)   DRY( 11, 78)   DRY( 11, 79)   DRY( 11, 80)   
    DRY( 11, 81)   DRY( 11, 82)   DRY( 11, 83)   DRY( 11, 84)   DRY( 11, 85)   
    DRY( 11, 86)   DRY( 11, 87)   DRY( 11, 88)   DRY( 11, 89)   DRY( 11, 90)   
    DRY( 11, 91)   DRY( 11, 92)   DRY( 11, 93)   DRY( 11, 94)   DRY( 11, 95)   
    DRY( 11, 96)   DRY( 11, 97)   DRY( 11, 98)   DRY( 11, 99)   DRY( 11,100)   
    DRY( 11,101)   DRY( 11,102)   DRY( 11,103)   DRY( 11,104)   DRY( 11,105)   
    DRY( 11,106)   DRY( 11,107)   DRY( 11,108)   DRY( 11,109)   DRY( 11,110)   
    DRY( 11,111)   DRY( 11,112)   DRY( 11,113)   DRY( 11,114)   DRY( 11,115)   
    DRY( 11,116)   DRY( 11,117)   DRY( 11,118)   DRY( 11,119)   DRY( 11,120)   
    DRY( 11,121)   DRY( 11,122)   DRY( 11,123)   DRY( 11,124)   DRY( 11,125)   
    DRY( 11,126)   DRY( 11,127)   DRY( 11,128)   DRY( 11,129)   DRY( 11,130)   
    DRY( 11,131)   DRY( 11,132)   DRY( 11,133)   DRY( 11,134)   DRY( 11,135)   
    DRY( 11,136)   DRY( 11,137)   DRY( 11,138)   DRY( 11,139)   DRY( 11,140)   
    DRY( 11,141)   DRY( 11,142)   DRY( 11,143)   DRY( 11,144)   DRY( 11,145)   
    DRY( 11,146)   DRY( 11,147)   DRY( 11,148)   DRY( 11,149)   DRY( 11,150)   
    DRY( 11,151)   DRY( 11,152)   DRY( 11,153)   DRY( 11,154)   DRY( 11,155)   
    DRY( 11,156)   DRY( 11,157)   DRY( 11,158)   DRY( 11,159)   DRY( 11,160)   
    DRY( 11,161)   DRY( 11,162)   DRY( 11,163)   DRY( 11,164)   DRY( 11,165)   
    DRY( 11,166)   DRY( 11,167)   DRY( 11,168)   DRY( 11,169)   DRY( 11,170)   
    DRY( 11,171)   DRY( 11,172)   DRY( 11,173)   DRY( 11,174)   DRY( 11,175)   
    DRY( 11,176)   DRY( 11,177)   DRY( 11,178)   DRY( 11,179)   DRY( 11,180)   
    DRY( 11,181)   DRY( 11,182)   DRY( 11,183)   DRY( 11,184)   DRY( 11,185)   
    DRY( 11,186)   DRY( 11,187)   DRY( 11,188)   DRY( 11,189)   DRY( 11,190)   
    DRY( 11,191)   DRY( 11,192)   DRY( 11,193)   DRY( 11,194)   DRY( 11,195)   
    DRY( 11,196)   DRY( 11,197)   DRY( 11,198)   DRY( 11,199)   DRY( 11,200)   
    DRY( 11,201)   DRY( 11,202)   DRY( 11,203)   DRY( 11,204)   DRY( 11,205)   
    DRY( 11,206)   DRY( 11,207)   DRY( 11,208)   DRY( 11,209)   DRY( 11,210)   
    DRY( 11,211)   DRY( 11,212)   DRY( 11,213)   DRY( 11,214)   DRY( 11,215)   
    DRY( 11,216)   DRY( 11,217)   DRY( 11,218)   DRY( 11,219)   DRY( 11,220)   
    DRY( 12,  1)   DRY( 12,  2)   DRY( 12,  3)   DRY( 12,  4)   DRY( 12,  5)   
    DRY( 12,  6)   DRY( 12,  7)   DRY( 12,  8)   DRY( 12,  9)   DRY( 12, 10)   
    DRY( 12, 11)   DRY( 12, 12)   DRY( 12, 13)   DRY( 12, 14)   DRY( 12, 15)   
    DRY( 12, 16)   DRY( 12, 17)   DRY( 12, 18)   DRY( 12, 19)   DRY( 12, 20)   
    DRY( 12, 21)   DRY( 12, 22)   DRY( 12, 23)   DRY( 12, 24)   DRY( 12, 25)   
    DRY( 12, 26)   DRY( 12, 27)   DRY( 12, 28)   DRY( 12, 29)   DRY( 12, 30)   
    DRY( 12, 31)   DRY( 12, 32)   DRY( 12, 33)   DRY( 12, 34)   DRY( 12, 35)   
    DRY( 12, 36)   DRY( 12, 37)   DRY( 12, 38)   DRY( 12, 39)   DRY( 12, 40)   
    DRY( 12, 41)   DRY( 12, 42)   DRY( 12, 43)   DRY( 12, 44)   DRY( 12, 45)   
    DRY( 12, 46)   DRY( 12, 47)   DRY( 12, 48)   DRY( 12, 49)   DRY( 12, 50)   
    DRY( 12, 51)   DRY( 12, 52)   DRY( 12, 53)   DRY( 12, 54)   DRY( 12, 55)   
    DRY( 12, 56)   DRY( 12, 57)   DRY( 12, 58)   DRY( 12, 59)   DRY( 12, 60)   
    DRY( 12, 61)   DRY( 12, 62)   DRY( 12, 63)   DRY( 12, 64)   DRY( 12, 65)   
    DRY( 12, 66)   DRY( 12, 67)   DRY( 12, 68)   DRY( 12, 69)   DRY( 12, 70)   
    DRY( 12, 71)   DRY( 12, 72)   DRY( 12, 73)   DRY( 12, 74)   DRY( 12, 75)   
    DRY( 12, 76)   DRY( 12, 77)   DRY( 12, 78)   DRY( 12, 79)   DRY( 12, 80)   
    DRY( 12, 81)   DRY( 12, 82)   DRY( 12, 83)   DRY( 12, 84)   DRY( 12, 85)   
    DRY( 12, 86)   DRY( 12, 87)   DRY( 12, 88)   DRY( 12, 89)   DRY( 12, 90)   
    DRY( 12, 91)   DRY( 12, 92)   DRY( 12, 93)   DRY( 12, 94)   DRY( 12, 95)   
    DRY( 12, 96)   DRY( 12, 97)   DRY( 12, 98)   DRY( 12, 99)   DRY( 12,100)   
    DRY( 12,101)   DRY( 12,102)   DRY( 12,103)   DRY( 12,104)   DRY( 12,105)   
    DRY( 12,106)   DRY( 12,107)   DRY( 12,108)   DRY( 12,109)   DRY( 12,110)   
    DRY( 12,111)   DRY( 12,112)   DRY( 12,113)   DRY( 12,114)   DRY( 12,115)   
    DRY( 12,116)   DRY( 12,117)   DRY( 12,118)   DRY( 12,119)   DRY( 12,120)   
    DRY( 12,121)   DRY( 12,122)   DRY( 12,123)   DRY( 12,124)   DRY( 12,125)   
    DRY( 12,126)   DRY( 12,127)   DRY( 12,128)   DRY( 12,129)   DRY( 12,130)   
    DRY( 12,131)   DRY( 12,132)   DRY( 12,133)   DRY( 12,134)   DRY( 12,135)   
    DRY( 12,136)   DRY( 12,137)   DRY( 12,138)   DRY( 12,139)   DRY( 12,140)   
    DRY( 12,141)   DRY( 12,142)   DRY( 12,143)   DRY( 12,144)   DRY( 12,145)   
    DRY( 12,146)   DRY( 12,147)   DRY( 12,148)   DRY( 12,149)   DRY( 12,150)   
    DRY( 12,151)   DRY( 12,152)   DRY( 12,153)   DRY( 12,154)   DRY( 12,155)   
    DRY( 12,156)   DRY( 12,157)   DRY( 12,158)   DRY( 12,159)   DRY( 12,160)   
    DRY( 12,161)   DRY( 12,162)   DRY( 12,163)   DRY( 12,164)   DRY( 12,165)   
    DRY( 12,166)   DRY( 12,167)   DRY( 12,168)   DRY( 12,169)   DRY( 12,170)   
    DRY( 12,171)   DRY( 12,172)   DRY( 12,173)   DRY( 12,174)   DRY( 12,175)   
    DRY( 12,176)   DRY( 12,177)   DRY( 12,178)   DRY( 12,179)   DRY( 12,180)   
    DRY( 12,181)   DRY( 12,182)   DRY( 12,183)   DRY( 12,184)   DRY( 12,185)   
    DRY( 12,186)   DRY( 12,187)   DRY( 12,188)   DRY( 12,189)   DRY( 12,190)   
    DRY( 12,191)   DRY( 12,192)   DRY( 12,193)   DRY( 12,194)   DRY( 12,195)   
    DRY( 12,196)   DRY( 12,197)   DRY( 12,198)   DRY( 12,199)   DRY( 12,200)   
    DRY( 12,201)   DRY( 12,202)   DRY( 12,203)   DRY( 12,204)   DRY( 12,205)   
    DRY( 12,206)   DRY( 12,207)   DRY( 12,208)   DRY( 12,209)   DRY( 12,210)   
    DRY( 12,211)   DRY( 12,212)   DRY( 12,213)   DRY( 12,214)   DRY( 12,215)   
    DRY( 12,216)   DRY( 12,217)   DRY( 12,218)   DRY( 12,219)   DRY( 12,220)   
    DRY( 13,  1)   DRY( 13,  2)   DRY( 13,  3)   DRY( 13,  4)   DRY( 13,  5)   
    DRY( 13,  6)   DRY( 13,  7)   DRY( 13,  8)   DRY( 13,  9)   DRY( 13, 10)   
    DRY( 13, 11)   DRY( 13, 12)   DRY( 13, 13)   DRY( 13, 14)   DRY( 13, 15)   
    DRY( 13, 16)   DRY( 13, 17)   DRY( 13, 18)   DRY( 13, 19)   DRY( 13, 20)   
    DRY( 13, 21)   DRY( 13, 22)   DRY( 13, 23)   DRY( 13, 24)   DRY( 13, 25)   
    DRY( 13, 26)   DRY( 13, 27)   DRY( 13, 28)   DRY( 13, 29)   DRY( 13, 30)   
    DRY( 13, 31)   DRY( 13, 32)   DRY( 13, 33)   DRY( 13, 34)   DRY( 13, 35)   
    DRY( 13, 36)   DRY( 13, 37)   DRY( 13, 38)   DRY( 13, 39)   DRY( 13, 40)   
    DRY( 13, 41)   DRY( 13, 42)   DRY( 13, 43)   DRY( 13, 44)   DRY( 13, 45)   
    DRY( 13, 46)   DRY( 13, 47)   DRY( 13, 48)   DRY( 13, 49)   DRY( 13, 50)   
    DRY( 13, 51)   DRY( 13, 52)   DRY( 13, 53)   DRY( 13, 54)   DRY( 13, 55)   
    DRY( 13, 56)   DRY( 13, 57)   DRY( 13, 58)   DRY( 13, 59)   DRY( 13, 60)   
    DRY( 13, 61)   DRY( 13, 62)   DRY( 13, 63)   DRY( 13, 64)   DRY( 13, 65)   
    DRY( 13, 66)   DRY( 13, 67)   DRY( 13, 68)   DRY( 13, 69)   DRY( 13, 70)   
    DRY( 13, 71)   DRY( 13, 72)   DRY( 13, 73)   DRY( 13, 74)   DRY( 13, 75)   
    DRY( 13, 76)   DRY( 13, 77)   DRY( 13, 78)   DRY( 13, 79)   DRY( 13, 80)   
    DRY( 13, 81)   DRY( 13, 82)   DRY( 13, 83)   DRY( 13, 84)   DRY( 13, 85)   
    DRY( 13, 86)   DRY( 13, 87)   DRY( 13, 88)   DRY( 13, 89)   DRY( 13, 90)   
    DRY( 13, 91)   DRY( 13, 92)   DRY( 13, 93)   DRY( 13, 94)   DRY( 13, 95)   
    DRY( 13, 96)   DRY( 13, 97)   DRY( 13, 98)   DRY( 13, 99)   DRY( 13,100)   
    DRY( 13,101)   DRY( 13,102)   DRY( 13,103)   DRY( 13,104)   DRY( 13,105)   
    DRY( 13,106)   DRY( 13,107)   DRY( 13,108)   DRY( 13,109)   DRY( 13,110)   
    DRY( 13,111)   DRY( 13,112)   DRY( 13,113)   DRY( 13,114)   DRY( 13,115)   
    DRY( 13,116)   DRY( 13,117)   DRY( 13,118)   DRY( 13,119)   DRY( 13,120)   
    DRY( 13,121)   DRY( 13,122)   DRY( 13,123)   DRY( 13,124)   DRY( 13,125)   
    DRY( 13,126)   DRY( 13,127)   DRY( 13,128)   DRY( 13,129)   DRY( 13,130)   
    DRY( 13,131)   DRY( 13,132)   DRY( 13,133)   DRY( 13,134)   DRY( 13,135)   
    DRY( 13,136)   DRY( 13,137)   DRY( 13,138)   DRY( 13,139)   DRY( 13,140)   
    DRY( 13,141)   DRY( 13,142)   DRY( 13,143)   DRY( 13,144)   DRY( 13,145)   
    DRY( 13,146)   DRY( 13,147)   DRY( 13,148)   DRY( 13,149)   DRY( 13,150)   
    DRY( 13,151)   DRY( 13,152)   DRY( 13,153)   DRY( 13,154)   DRY( 13,155)   
    DRY( 13,156)   DRY( 13,157)   DRY( 13,158)   DRY( 13,159)   DRY( 13,160)   
    DRY( 13,161)   DRY( 13,162)   DRY( 13,163)   DRY( 13,164)   DRY( 13,165)   
    DRY( 13,166)   DRY( 13,167)   DRY( 13,168)   DRY( 13,169)   DRY( 13,170)   
    DRY( 13,171)   DRY( 13,172)   DRY( 13,173)   DRY( 13,174)   DRY( 13,175)   
    DRY( 13,176)   DRY( 13,177)   DRY( 13,178)   DRY( 13,179)   DRY( 13,180)   
    DRY( 13,181)   DRY( 13,182)   DRY( 13,183)   DRY( 13,184)   DRY( 13,185)   
    DRY( 13,186)   DRY( 13,187)   DRY( 13,188)   DRY( 13,189)   DRY( 13,190)   
    DRY( 13,191)   DRY( 13,192)   DRY( 13,193)   DRY( 13,194)   DRY( 13,195)   
    DRY( 13,196)   DRY( 13,197)   DRY( 13,198)   DRY( 13,199)   DRY( 13,200)   
    DRY( 13,201)   DRY( 13,202)   DRY( 13,203)   DRY( 13,204)   DRY( 13,205)   
    DRY( 13,206)   DRY( 13,207)   DRY( 13,208)   DRY( 13,209)   DRY( 13,210)   
    DRY( 13,211)   DRY( 13,212)   DRY( 13,213)   DRY( 13,214)   DRY( 13,215)   
    DRY( 13,216)   DRY( 13,217)   DRY( 13,218)   DRY( 13,219)   DRY( 13,220)   
    DRY( 14,  1)   DRY( 14,  2)   DRY( 14,  3)   DRY( 14,  4)   DRY( 14,  5)   
    DRY( 14,  6)   DRY( 14,  7)   DRY( 14,  8)   DRY( 14,  9)   DRY( 14, 10)   
    DRY( 14, 11)   DRY( 14, 12)   DRY( 14, 13)   DRY( 14, 14)   DRY( 14, 15)   
    DRY( 14, 16)   DRY( 14, 17)   DRY( 14, 18)   DRY( 14, 19)   DRY( 14, 20)   
    DRY( 14, 21)   DRY( 14, 22)   DRY( 14, 23)   DRY( 14, 24)   DRY( 14, 25)   
    DRY( 14, 26)   DRY( 14, 27)   DRY( 14, 28)   DRY( 14, 29)   DRY( 14, 30)   
    DRY( 14, 31)   DRY( 14, 32)   DRY( 14, 33)   DRY( 14, 34)   DRY( 14, 35)   
    DRY( 14, 36)   DRY( 14, 37)   DRY( 14, 38)   DRY( 14, 39)   DRY( 14, 40)   
    DRY( 14, 41)   DRY( 14, 42)   DRY( 14, 43)   DRY( 14, 44)   DRY( 14, 45)   
    DRY( 14, 46)   DRY( 14, 47)   DRY( 14, 48)   DRY( 14, 49)   DRY( 14, 50)   
    DRY( 14, 51)   DRY( 14, 52)   DRY( 14, 53)   DRY( 14, 54)   DRY( 14, 55)   
    DRY( 14, 56)   DRY( 14, 57)   DRY( 14, 58)   DRY( 14, 59)   DRY( 14, 60)   
    DRY( 14, 61)   DRY( 14, 62)   DRY( 14, 63)   DRY( 14, 64)   DRY( 14, 65)   
    DRY( 14, 66)   DRY( 14, 67)   DRY( 14, 68)   DRY( 14, 69)   DRY( 14, 70)   
    DRY( 14, 71)   DRY( 14, 72)   DRY( 14, 73)   DRY( 14, 74)   DRY( 14, 75)   
    DRY( 14, 76)   DRY( 14, 77)   DRY( 14, 78)   DRY( 14, 79)   DRY( 14, 80)   
    DRY( 14, 81)   DRY( 14, 82)   DRY( 14, 83)   DRY( 14, 84)   DRY( 14, 85)   
    DRY( 14, 86)   DRY( 14, 87)   DRY( 14, 88)   DRY( 14, 89)   DRY( 14, 90)   
    DRY( 14, 91)   DRY( 14, 92)   DRY( 14, 93)   DRY( 14, 94)   DRY( 14, 95)   
    DRY( 14, 96)   DRY( 14, 97)   DRY( 14, 98)   DRY( 14, 99)   DRY( 14,100)   
    DRY( 14,101)   DRY( 14,102)   DRY( 14,103)   DRY( 14,104)   DRY( 14,105)   
    DRY( 14,106)   DRY( 14,107)   DRY( 14,108)   DRY( 14,109)   DRY( 14,110)   
    DRY( 14,111)   DRY( 14,112)   DRY( 14,113)   DRY( 14,114)   DRY( 14,115)   
    DRY( 14,116)   DRY( 14,117)   DRY( 14,118)   DRY( 14,119)   DRY( 14,120)   
    DRY( 14,121)   DRY( 14,122)   DRY( 14,123)   DRY( 14,124)   DRY( 14,125)   
    DRY( 14,126)   DRY( 14,127)   DRY( 14,128)   DRY( 14,129)   DRY( 14,130)   
    DRY( 14,131)   DRY( 14,132)   DRY( 14,133)   DRY( 14,134)   DRY( 14,135)   
    DRY( 14,136)   DRY( 14,137)   DRY( 14,138)   DRY( 14,139)   DRY( 14,140)   
    DRY( 14,141)   DRY( 14,142)   DRY( 14,143)   DRY( 14,144)   DRY( 14,145)   
    DRY( 14,146)   DRY( 14,147)   DRY( 14,148)   DRY( 14,149)   DRY( 14,150)   
    DRY( 14,151)   DRY( 14,152)   DRY( 14,153)   DRY( 14,154)   DRY( 14,155)   
    DRY( 14,156)   DRY( 14,157)   DRY( 14,158)   DRY( 14,159)   DRY( 14,160)   
    DRY( 14,161)   DRY( 14,162)   DRY( 14,163)   DRY( 14,164)   DRY( 14,165)   
    DRY( 14,166)   DRY( 14,167)   DRY( 14,168)   DRY( 14,169)   DRY( 14,170)   
    DRY( 14,171)   DRY( 14,172)   DRY( 14,173)   DRY( 14,174)   DRY( 14,175)   
    DRY( 14,176)   DRY( 14,177)   DRY( 14,178)   DRY( 14,179)   DRY( 14,180)   
    DRY( 14,181)   DRY( 14,182)   DRY( 14,183)   DRY( 14,184)   DRY( 14,185)   
    DRY( 14,186)   DRY( 14,187)   DRY( 14,188)   DRY( 14,189)   DRY( 14,190)   
    DRY( 14,191)   DRY( 14,192)   DRY( 14,193)   DRY( 14,194)   DRY( 14,195)   
    DRY( 14,196)   DRY( 14,197)   DRY( 14,198)   DRY( 14,199)   DRY( 14,200)   
    DRY( 14,201)   DRY( 14,202)   DRY( 14,203)   DRY( 14,204)   DRY( 14,205)   
    DRY( 14,206)   DRY( 14,207)   DRY( 14,208)   DRY( 14,209)   DRY( 14,210)   
    DRY( 14,211)   DRY( 14,212)   DRY( 14,213)   DRY( 14,214)   DRY( 14,215)   
    DRY( 14,216)   DRY( 14,217)   DRY( 14,218)   DRY( 14,219)   DRY( 14,220)   
    DRY( 15,  1)   DRY( 15,  2)   DRY( 15,  3)   DRY( 15,  4)   DRY( 15,  5)   
    DRY( 15,  6)   DRY( 15,  7)   DRY( 15,  8)   DRY( 15,  9)   DRY( 15, 10)   
    DRY( 15, 11)   DRY( 15, 12)   DRY( 15, 13)   DRY( 15, 14)   DRY( 15, 15)   
    DRY( 15, 16)   DRY( 15, 17)   DRY( 15, 18)   DRY( 15, 19)   DRY( 15, 20)   
    DRY( 15, 21)   DRY( 15, 22)   DRY( 15, 23)   DRY( 15, 24)   DRY( 15, 25)   
    DRY( 15, 26)   DRY( 15, 27)   DRY( 15, 28)   DRY( 15, 29)   DRY( 15, 30)   
    DRY( 15, 31)   DRY( 15, 32)   DRY( 15, 33)   DRY( 15, 34)   DRY( 15, 35)   
    DRY( 15, 36)   DRY( 15, 37)   DRY( 15, 38)   DRY( 15, 39)   DRY( 15, 40)   
    DRY( 15, 41)   DRY( 15, 42)   DRY( 15, 43)   DRY( 15, 44)   DRY( 15, 45)   
    DRY( 15, 46)   DRY( 15, 47)   DRY( 15, 48)   DRY( 15, 49)   DRY( 15, 50)   
    DRY( 15, 51)   DRY( 15, 52)   DRY( 15, 53)   DRY( 15, 54)   DRY( 15, 55)   
    DRY( 15, 56)   DRY( 15, 57)   DRY( 15, 58)   DRY( 15, 59)   DRY( 15, 60)   
    DRY( 15, 61)   DRY( 15, 62)   DRY( 15, 63)   DRY( 15, 64)   DRY( 15, 65)   
    DRY( 15, 66)   DRY( 15, 67)   DRY( 15, 68)   DRY( 15, 69)   DRY( 15, 70)   
    DRY( 15, 71)   DRY( 15, 72)   DRY( 15, 73)   DRY( 15, 74)   DRY( 15, 75)   
    DRY( 15, 76)   DRY( 15, 77)   DRY( 15, 78)   DRY( 15, 79)   DRY( 15, 80)   
    DRY( 15, 81)   DRY( 15, 82)   DRY( 15, 83)   DRY( 15, 84)   DRY( 15, 85)   
    DRY( 15, 86)   DRY( 15, 87)   DRY( 15, 88)   DRY( 15, 89)   DRY( 15, 90)   
    DRY( 15, 91)   DRY( 15, 92)   DRY( 15, 93)   DRY( 15, 94)   DRY( 15, 95)   
    DRY( 15, 96)   DRY( 15, 97)   DRY( 15, 98)   DRY( 15, 99)   DRY( 15,100)   
    DRY( 15,101)   DRY( 15,102)   DRY( 15,103)   DRY( 15,104)   DRY( 15,105)   
    DRY( 15,106)   DRY( 15,107)   DRY( 15,108)   DRY( 15,109)   DRY( 15,110)   
    DRY( 15,111)   DRY( 15,112)   DRY( 15,113)   DRY( 15,114)   DRY( 15,115)   
    DRY( 15,116)   DRY( 15,117)   DRY( 15,118)   DRY( 15,119)   DRY( 15,120)   
    DRY( 15,121)   DRY( 15,122)   DRY( 15,123)   DRY( 15,124)   DRY( 15,125)   
    DRY( 15,126)   DRY( 15,127)   DRY( 15,128)   DRY( 15,129)   DRY( 15,130)   
    DRY( 15,131)   DRY( 15,132)   DRY( 15,133)   DRY( 15,134)   DRY( 15,135)   
    DRY( 15,136)   DRY( 15,137)   DRY( 15,138)   DRY( 15,139)   DRY( 15,140)   
    DRY( 15,141)   DRY( 15,142)   DRY( 15,143)   DRY( 15,144)   DRY( 15,145)   
    DRY( 15,146)   DRY( 15,147)   DRY( 15,148)   DRY( 15,149)   DRY( 15,150)   
    DRY( 15,151)   DRY( 15,152)   DRY( 15,153)   DRY( 15,154)   DRY( 15,155)   
    DRY( 15,156)   DRY( 15,157)   DRY( 15,158)   DRY( 15,159)   DRY( 15,160)   
    DRY( 15,161)   DRY( 15,162)   DRY( 15,163)   DRY( 15,164)   DRY( 15,165)   
    DRY( 15,166)   DRY( 15,167)   DRY( 15,168)   DRY( 15,169)   DRY( 15,170)   
    DRY( 15,171)   DRY( 15,172)   DRY( 15,173)   DRY( 15,174)   DRY( 15,175)   
    DRY( 15,176)   DRY( 15,177)   DRY( 15,178)   DRY( 15,179)   DRY( 15,180)   
    DRY( 15,181)   DRY( 15,182)   DRY( 15,183)   DRY( 15,184)   DRY( 15,185)   
    DRY( 15,186)   DRY( 15,187)   DRY( 15,188)   DRY( 15,189)   DRY( 15,190)   
    DRY( 15,191)   DRY( 15,192)   DRY( 15,193)   DRY( 15,194)   DRY( 15,195)   
    DRY( 15,196)   DRY( 15,197)   DRY( 15,198)   DRY( 15,199)   DRY( 15,200)   
    DRY( 15,201)   DRY( 15,202)   DRY( 15,203)   DRY( 15,204)   DRY( 15,205)   
    DRY( 15,206)   DRY( 15,207)   DRY( 15,208)   DRY( 15,209)   DRY( 15,210)   
    DRY( 15,211)   DRY( 15,212)   DRY( 15,213)   DRY( 15,214)   DRY( 15,215)   
    DRY( 15,216)   DRY( 15,217)   DRY( 15,218)   DRY( 15,219)   DRY( 15,220)   
    DRY( 16,  1)   DRY( 16,  2)   DRY( 16,  3)   DRY( 16,  4)   DRY( 16,  5)   
    DRY( 16,  6)   DRY( 16,  7)   DRY( 16,  8)   DRY( 16,  9)   DRY( 16, 10)   
    DRY( 16, 11)   DRY( 16, 12)   DRY( 16, 13)   DRY( 16, 14)   DRY( 16, 15)   
    DRY( 16, 16)   DRY( 16, 17)   DRY( 16, 18)   DRY( 16, 19)   DRY( 16, 20)   
    DRY( 16, 21)   DRY( 16, 22)   DRY( 16, 23)   DRY( 16, 24)   DRY( 16, 25)   
    DRY( 16, 26)   DRY( 16, 27)   DRY( 16, 28)   DRY( 16, 29)   DRY( 16, 30)   
    DRY( 16, 31)   DRY( 16, 32)   DRY( 16, 33)   DRY( 16, 34)   DRY( 16, 35)   
    DRY( 16, 36)   DRY( 16, 37)   DRY( 16, 38)   DRY( 16, 39)   DRY( 16, 40)   
    DRY( 16, 41)   DRY( 16, 42)   DRY( 16, 43)   DRY( 16, 44)   DRY( 16, 45)   
    DRY( 16, 46)   DRY( 16, 47)   DRY( 16, 48)   DRY( 16, 49)   DRY( 16, 50)   
    DRY( 16, 51)   DRY( 16, 52)   DRY( 16, 53)   DRY( 16, 54)   DRY( 16, 55)   
    DRY( 16, 56)   DRY( 16, 57)   DRY( 16, 58)   DRY( 16, 59)   DRY( 16, 60)   
    DRY( 16, 61)   DRY( 16, 62)   DRY( 16, 63)   DRY( 16, 64)   DRY( 16, 65)   
    DRY( 16, 66)   DRY( 16, 67)   DRY( 16, 68)   DRY( 16, 69)   DRY( 16, 70)   
    DRY( 16, 71)   DRY( 16, 72)   DRY( 16, 73)   DRY( 16, 74)   DRY( 16, 75)   
    DRY( 16, 76)   DRY( 16, 77)   DRY( 16, 78)   DRY( 16, 79)   DRY( 16, 80)   
    DRY( 16, 81)   DRY( 16, 82)   DRY( 16, 83)   DRY( 16, 84)   DRY( 16, 85)   
    DRY( 16, 86)   DRY( 16, 87)   DRY( 16, 88)   DRY( 16, 89)   DRY( 16, 90)   
    DRY( 16, 91)   DRY( 16, 92)   DRY( 16, 93)   DRY( 16, 94)   DRY( 16, 95)   
    DRY( 16, 96)   DRY( 16, 97)   DRY( 16, 98)   DRY( 16, 99)   DRY( 16,100)   
    DRY( 16,101)   DRY( 16,102)   DRY( 16,103)   DRY( 16,104)   DRY( 16,105)   
    DRY( 16,106)   DRY( 16,107)   DRY( 16,108)   DRY( 16,109)   DRY( 16,110)   
    DRY( 16,111)   DRY( 16,112)   DRY( 16,113)   DRY( 16,114)   DRY( 16,115)   
    DRY( 16,116)   DRY( 16,117)   DRY( 16,118)   DRY( 16,119)   DRY( 16,120)   
    DRY( 16,121)   DRY( 16,122)   DRY( 16,123)   DRY( 16,124)   DRY( 16,125)   
    DRY( 16,126)   DRY( 16,127)   DRY( 16,128)   DRY( 16,129)   DRY( 16,130)   
    DRY( 16,131)   DRY( 16,132)   DRY( 16,133)   DRY( 16,134)   DRY( 16,135)   
    DRY( 16,136)   DRY( 16,137)   DRY( 16,138)   DRY( 16,139)   DRY( 16,140)   
    DRY( 16,141)   DRY( 16,142)   DRY( 16,143)   DRY( 16,144)   DRY( 16,145)   
    DRY( 16,146)   DRY( 16,147)   DRY( 16,148)   DRY( 16,149)   DRY( 16,150)   
    DRY( 16,151)   DRY( 16,152)   DRY( 16,153)   DRY( 16,154)   DRY( 16,155)   
    DRY( 16,156)   DRY( 16,157)   DRY( 16,158)   DRY( 16,159)   DRY( 16,160)   
    DRY( 16,161)   DRY( 16,162)   DRY( 16,163)   DRY( 16,164)   DRY( 16,165)   
    DRY( 16,166)   DRY( 16,167)   DRY( 16,168)   DRY( 16,169)   DRY( 16,170)   
    DRY( 16,171)   DRY( 16,172)   DRY( 16,173)   DRY( 16,174)   DRY( 16,175)   
    DRY( 16,176)   DRY( 16,177)   DRY( 16,178)   DRY( 16,179)   DRY( 16,180)   
    DRY( 16,181)   DRY( 16,182)   DRY( 16,183)   DRY( 16,184)   DRY( 16,185)   
    DRY( 16,186)   DRY( 16,187)   DRY( 16,188)   DRY( 16,189)   DRY( 16,190)   
    DRY( 16,191)   DRY( 16,192)   DRY( 16,193)   DRY( 16,194)   DRY( 16,195)   
    DRY( 16,196)   DRY( 16,197)   DRY( 16,198)   DRY( 16,199)   DRY( 16,200)   
    DRY( 16,201)   DRY( 16,202)   DRY( 16,203)   DRY( 16,204)   DRY( 16,205)   
    DRY( 16,206)   DRY( 16,207)   DRY( 16,208)   DRY( 16,209)   DRY( 16,210)   
    DRY( 16,211)   DRY( 16,212)   DRY( 16,213)   DRY( 16,214)   DRY( 16,215)   
    DRY( 16,216)   DRY( 16,217)   DRY( 16,218)   DRY( 16,219)   DRY( 16,220)   
    DRY( 17,  1)   DRY( 17,  2)   DRY( 17,  3)   DRY( 17,  4)   DRY( 17,  5)   
    DRY( 17,  6)   DRY( 17,  7)   DRY( 17,  8)   DRY( 17,  9)   DRY( 17, 10)   
    DRY( 17, 11)   DRY( 17, 12)   DRY( 17, 13)   DRY( 17, 14)   DRY( 17, 15)   
    DRY( 17, 16)   DRY( 17, 17)   DRY( 17, 18)   DRY( 17, 19)   DRY( 17, 20)   
    DRY( 17, 21)   DRY( 17, 22)   DRY( 17, 23)   DRY( 17, 24)   DRY( 17, 25)   
    DRY( 17, 26)   DRY( 17, 27)   DRY( 17, 28)   DRY( 17, 29)   DRY( 17, 30)   
    DRY( 17, 31)   DRY( 17, 32)   DRY( 17, 33)   DRY( 17, 34)   DRY( 17, 35)   
    DRY( 17, 36)   DRY( 17, 37)   DRY( 17, 38)   DRY( 17, 39)   DRY( 17, 40)   
    DRY( 17, 41)   DRY( 17, 42)   DRY( 17, 43)   DRY( 17, 44)   DRY( 17, 45)   
    DRY( 17, 46)   DRY( 17, 47)   DRY( 17, 48)   DRY( 17, 49)   DRY( 17, 50)   
    DRY( 17, 51)   DRY( 17, 52)   DRY( 17, 53)   DRY( 17, 54)   DRY( 17, 55)   
    DRY( 17, 56)   DRY( 17, 57)   DRY( 17, 58)   DRY( 17, 59)   DRY( 17, 60)   
    DRY( 17, 61)   DRY( 17, 62)   DRY( 17, 63)   DRY( 17, 64)   DRY( 17, 65)   
    DRY( 17, 66)   DRY( 17, 67)   DRY( 17, 68)   DRY( 17, 69)   DRY( 17, 70)   
    DRY( 17, 71)   DRY( 17, 72)   DRY( 17, 73)   DRY( 17, 74)   DRY( 17, 75)   
    DRY( 17, 76)   DRY( 17, 77)   DRY( 17, 78)   DRY( 17, 79)   DRY( 17, 80)   
    DRY( 17, 81)   DRY( 17, 82)   DRY( 17, 83)   DRY( 17, 84)   DRY( 17, 85)   
    DRY( 17, 86)   DRY( 17, 87)   DRY( 17, 88)   DRY( 17, 89)   DRY( 17, 90)   
    DRY( 17, 91)   DRY( 17, 92)   DRY( 17, 93)   DRY( 17, 94)   DRY( 17, 95)   
    DRY( 17, 96)   DRY( 17, 97)   DRY( 17, 98)   DRY( 17, 99)   DRY( 17,100)   
    DRY( 17,101)   DRY( 17,102)   DRY( 17,103)   DRY( 17,104)   DRY( 17,105)   
    DRY( 17,106)   DRY( 17,107)   DRY( 17,108)   DRY( 17,109)   DRY( 17,110)   
    DRY( 17,111)   DRY( 17,112)   DRY( 17,113)   DRY( 17,114)   DRY( 17,115)   
    DRY( 17,116)   DRY( 17,117)   DRY( 17,118)   DRY( 17,119)   DRY( 17,120)   
    DRY( 17,121)   DRY( 17,122)   DRY( 17,123)   DRY( 17,124)   DRY( 17,125)   
    DRY( 17,126)   DRY( 17,127)   DRY( 17,128)   DRY( 17,129)   DRY( 17,130)   
    DRY( 17,131)   DRY( 17,132)   DRY( 17,133)   DRY( 17,134)   DRY( 17,135)   
    DRY( 17,136)   DRY( 17,137)   DRY( 17,138)   DRY( 17,139)   DRY( 17,140)   
    DRY( 17,141)   DRY( 17,142)   DRY( 17,143)   DRY( 17,144)   DRY( 17,145)   
    DRY( 17,146)   DRY( 17,147)   DRY( 17,148)   DRY( 17,149)   DRY( 17,150)   
    DRY( 17,151)   DRY( 17,152)   DRY( 17,153)   DRY( 17,154)   DRY( 17,155)   
    DRY( 17,156)   DRY( 17,157)   DRY( 17,158)   DRY( 17,159)   DRY( 17,160)   
    DRY( 17,161)   DRY( 17,162)   DRY( 17,163)   DRY( 17,164)   DRY( 17,165)   
    DRY( 17,166)   DRY( 17,167)   DRY( 17,168)   DRY( 17,169)   DRY( 17,170)   
    DRY( 17,171)   DRY( 17,172)   DRY( 17,173)   DRY( 17,174)   DRY( 17,175)   
    DRY( 17,176)   DRY( 17,177)   DRY( 17,178)   DRY( 17,179)   DRY( 17,180)   
    DRY( 17,181)   DRY( 17,182)   DRY( 17,183)   DRY( 17,184)   DRY( 17,185)   
    DRY( 17,186)   DRY( 17,187)   DRY( 17,188)   DRY( 17,189)   DRY( 17,190)   
    DRY( 17,191)   DRY( 17,192)   DRY( 17,193)   DRY( 17,194)   DRY( 17,195)   
    DRY( 17,196)   DRY( 17,197)   DRY( 17,198)   DRY( 17,199)   DRY( 17,200)   
    DRY( 17,201)   DRY( 17,202)   DRY( 17,203)   DRY( 17,204)   DRY( 17,205)   
    DRY( 17,206)   DRY( 17,207)   DRY( 17,208)   DRY( 17,209)   DRY( 17,210)   
    DRY( 17,211)   DRY( 17,212)   DRY( 17,213)   DRY( 17,214)   DRY( 17,215)   
    DRY( 17,216)   DRY( 17,217)   DRY( 17,218)   DRY( 17,219)   DRY( 17,220)   
    DRY( 18,  1)   DRY( 18,  2)   DRY( 18,  3)   DRY( 18,  4)   DRY( 18,  5)   
    DRY( 18,  6)   DRY( 18,  7)   DRY( 18,  8)   DRY( 18,  9)   DRY( 18, 10)   
    DRY( 18, 11)   DRY( 18, 12)   DRY( 18, 13)   DRY( 18, 14)   DRY( 18, 15)   
    DRY( 18, 16)   DRY( 18, 17)   DRY( 18, 18)   DRY( 18, 19)   DRY( 18, 20)   
    DRY( 18, 21)   DRY( 18, 22)   DRY( 18, 23)   DRY( 18, 24)   DRY( 18, 25)   
    DRY( 18, 26)   DRY( 18, 27)   DRY( 18, 28)   DRY( 18, 29)   DRY( 18, 30)   
    DRY( 18, 31)   DRY( 18, 32)   DRY( 18, 33)   DRY( 18, 34)   DRY( 18, 35)   
    DRY( 18, 36)   DRY( 18, 37)   DRY( 18, 38)   DRY( 18, 39)   DRY( 18, 40)   
    DRY( 18, 41)   DRY( 18, 42)   DRY( 18, 43)   DRY( 18, 44)   DRY( 18, 45)   
    DRY( 18, 46)   DRY( 18, 47)   DRY( 18, 48)   DRY( 18, 49)   DRY( 18, 50)   
    DRY( 18, 51)   DRY( 18, 52)   DRY( 18, 53)   DRY( 18, 54)   DRY( 18, 55)   
    DRY( 18, 56)   DRY( 18, 57)   DRY( 18, 58)   DRY( 18, 59)   DRY( 18, 60)   
    DRY( 18, 61)   DRY( 18, 62)   DRY( 18, 63)   DRY( 18, 64)   DRY( 18, 65)   
    DRY( 18, 66)   DRY( 18, 67)   DRY( 18, 68)   DRY( 18, 69)   DRY( 18, 70)   
    DRY( 18, 71)   DRY( 18, 72)   DRY( 18, 73)   DRY( 18, 74)   DRY( 18, 75)   
    DRY( 18, 76)   DRY( 18, 77)   DRY( 18, 78)   DRY( 18, 79)   DRY( 18, 80)   
    DRY( 18, 81)   DRY( 18, 82)   DRY( 18, 83)   DRY( 18, 84)   DRY( 18, 85)   
    DRY( 18, 86)   DRY( 18, 87)   DRY( 18, 88)   DRY( 18, 89)   DRY( 18, 90)   
    DRY( 18, 91)   DRY( 18, 92)   DRY( 18, 93)   DRY( 18, 94)   DRY( 18, 95)   
    DRY( 18, 96)   DRY( 18, 97)   DRY( 18, 98)   DRY( 18, 99)   DRY( 18,100)   
    DRY( 18,101)   DRY( 18,102)   DRY( 18,103)   DRY( 18,104)   DRY( 18,105)   
    DRY( 18,106)   DRY( 18,107)   DRY( 18,108)   DRY( 18,109)   DRY( 18,110)   
    DRY( 18,111)   DRY( 18,112)   DRY( 18,113)   DRY( 18,114)   DRY( 18,115)   
    DRY( 18,116)   DRY( 18,117)   DRY( 18,118)   DRY( 18,119)   DRY( 18,120)   
    DRY( 18,121)   DRY( 18,122)   DRY( 18,123)   DRY( 18,124)   DRY( 18,125)   
    DRY( 18,126)   DRY( 18,127)   DRY( 18,128)   DRY( 18,129)   DRY( 18,130)   
    DRY( 18,131)   DRY( 18,132)   DRY( 18,133)   DRY( 18,134)   DRY( 18,135)   
    DRY( 18,136)   DRY( 18,137)   DRY( 18,138)   DRY( 18,139)   DRY( 18,140)   
    DRY( 18,141)   DRY( 18,142)   DRY( 18,143)   DRY( 18,144)   DRY( 18,145)   
    DRY( 18,146)   DRY( 18,147)   DRY( 18,148)   DRY( 18,149)   DRY( 18,150)   
    DRY( 18,151)   DRY( 18,152)   DRY( 18,153)   DRY( 18,154)   DRY( 18,155)   
    DRY( 18,156)   DRY( 18,157)   DRY( 18,158)   DRY( 18,159)   DRY( 18,160)   
    DRY( 18,161)   DRY( 18,162)   DRY( 18,163)   DRY( 18,164)   DRY( 18,165)   
    DRY( 18,166)   DRY( 18,167)   DRY( 18,168)   DRY( 18,169)   DRY( 18,170)   
    DRY( 18,171)   DRY( 18,172)   DRY( 18,173)   DRY( 18,174)   DRY( 18,175)   
    DRY( 18,176)   DRY( 18,177)   DRY( 18,178)   DRY( 18,179)   DRY( 18,180)   
    DRY( 18,181)   DRY( 18,182)   DRY( 18,183)   DRY( 18,184)   DRY( 18,185)   
    DRY( 18,186)   DRY( 18,187)   DRY( 18,188)   DRY( 18,189)   DRY( 18,190)   
    DRY( 18,191)   DRY( 18,192)   DRY( 18,193)   DRY( 18,194)   DRY( 18,195)   
    DRY( 18,196)   DRY( 18,197)   DRY( 18,198)   DRY( 18,199)   DRY( 18,200)   
    DRY( 18,201)   DRY( 18,202)   DRY( 18,203)   DRY( 18,204)   DRY( 18,205)   
    DRY( 18,206)   DRY( 18,207)   DRY( 18,208)   DRY( 18,209)   DRY( 18,210)   
    DRY( 18,211)   DRY( 18,212)   DRY( 18,213)   DRY( 18,214)   DRY( 18,215)   
    DRY( 18,216)   DRY( 18,217)   DRY( 18,218)   DRY( 18,219)   DRY( 18,220)   
    DRY( 19,  1)   DRY( 19,  2)   DRY( 19,  3)   DRY( 19,  4)   DRY( 19,  5)   
    DRY( 19,  6)   DRY( 19,  7)   DRY( 19,  8)   DRY( 19,  9)   DRY( 19, 10)   
    DRY( 19, 11)   DRY( 19, 12)   DRY( 19, 13)   DRY( 19, 14)   DRY( 19, 15)   
    DRY( 19, 16)   DRY( 19, 17)   DRY( 19, 18)   DRY( 19, 19)   DRY( 19, 20)   
    DRY( 19, 21)   DRY( 19, 22)   DRY( 19, 23)   DRY( 19, 24)   DRY( 19, 25)   
    DRY( 19, 26)   DRY( 19, 27)   DRY( 19, 28)   DRY( 19, 29)   DRY( 19, 30)   
    DRY( 19, 31)   DRY( 19, 32)   DRY( 19, 33)   DRY( 19, 34)   DRY( 19, 35)   
    DRY( 19, 36)   DRY( 19, 37)   DRY( 19, 38)   DRY( 19, 39)   DRY( 19, 40)   
    DRY( 19, 41)   DRY( 19, 42)   DRY( 19, 43)   DRY( 19, 44)   DRY( 19, 45)   
    DRY( 19, 46)   DRY( 19, 47)   DRY( 19, 48)   DRY( 19, 49)   DRY( 19, 50)   
    DRY( 19, 51)   DRY( 19, 52)   DRY( 19, 53)   DRY( 19, 54)   DRY( 19, 55)   
    DRY( 19, 56)   DRY( 19, 57)   DRY( 19, 58)   DRY( 19, 59)   DRY( 19, 60)   
    DRY( 19, 61)   DRY( 19, 62)   DRY( 19, 63)   DRY( 19, 64)   DRY( 19, 65)   
    DRY( 19, 66)   DRY( 19, 67)   DRY( 19, 68)   DRY( 19, 69)   DRY( 19, 70)   
    DRY( 19, 71)   DRY( 19, 72)   DRY( 19, 73)   DRY( 19, 74)   DRY( 19, 75)   
    DRY( 19, 76)   DRY( 19, 77)   DRY( 19, 78)   DRY( 19, 79)   DRY( 19, 80)   
    DRY( 19, 81)   DRY( 19, 82)   DRY( 19, 83)   DRY( 19, 84)   DRY( 19, 85)   
    DRY( 19, 86)   DRY( 19, 87)   DRY( 19, 88)   DRY( 19, 89)   DRY( 19, 90)   
    DRY( 19, 91)   DRY( 19, 92)   DRY( 19, 93)   DRY( 19, 94)   DRY( 19, 95)   
    DRY( 19, 96)   DRY( 19, 97)   DRY( 19, 98)   DRY( 19, 99)   DRY( 19,100)   
    DRY( 19,101)   DRY( 19,102)   DRY( 19,103)   DRY( 19,104)   DRY( 19,105)   
    DRY( 19,106)   DRY( 19,107)   DRY( 19,108)   DRY( 19,109)   DRY( 19,110)   
    DRY( 19,111)   DRY( 19,112)   DRY( 19,113)   DRY( 19,114)   DRY( 19,115)   
    DRY( 19,116)   DRY( 19,117)   DRY( 19,118)   DRY( 19,119)   DRY( 19,120)   
    DRY( 19,121)   DRY( 19,122)   DRY( 19,123)   DRY( 19,124)   DRY( 19,125)   
    DRY( 19,126)   DRY( 19,127)   DRY( 19,128)   DRY( 19,129)   DRY( 19,130)   
    DRY( 19,131)   DRY( 19,132)   DRY( 19,133)   DRY( 19,134)   DRY( 19,135)   
    DRY( 19,136)   DRY( 19,137)   DRY( 19,138)   DRY( 19,139)   DRY( 19,140)   
    DRY( 19,141)   DRY( 19,142)   DRY( 19,143)   DRY( 19,144)   DRY( 19,145)   
    DRY( 19,146)   DRY( 19,147)   DRY( 19,148)   DRY( 19,149)   DRY( 19,150)   
    DRY( 19,151)   DRY( 19,152)   DRY( 19,153)   DRY( 19,154)   DRY( 19,155)   
    DRY( 19,156)   DRY( 19,157)   DRY( 19,158)   DRY( 19,159)   DRY( 19,160)   
    DRY( 19,161)   DRY( 19,162)   DRY( 19,163)   DRY( 19,164)   DRY( 19,165)   
    DRY( 19,166)   DRY( 19,167)   DRY( 19,168)   DRY( 19,169)   DRY( 19,170)   
    DRY( 19,171)   DRY( 19,172)   DRY( 19,173)   DRY( 19,174)   DRY( 19,175)   
    DRY( 19,176)   DRY( 19,177)   DRY( 19,178)   DRY( 19,179)   DRY( 19,180)   
    DRY( 19,181)   DRY( 19,182)   DRY( 19,183)   DRY( 19,184)   DRY( 19,185)   
    DRY( 19,186)   DRY( 19,187)   DRY( 19,188)   DRY( 19,189)   DRY( 19,190)   
    DRY( 19,191)   DRY( 19,192)   DRY( 19,193)   DRY( 19,194)   DRY( 19,195)   
    DRY( 19,196)   DRY( 19,197)   DRY( 19,198)   DRY( 19,199)   DRY( 19,200)   
    DRY( 19,201)   DRY( 19,202)   DRY( 19,203)   DRY( 19,204)   DRY( 19,205)   
    DRY( 19,206)   DRY( 19,207)   DRY( 19,208)   DRY( 19,209)   DRY( 19,210)   
    DRY( 19,211)   DRY( 19,212)   DRY( 19,213)   DRY( 19,214)   DRY( 19,215)   
    DRY( 19,216)   DRY( 19,217)   DRY( 19,218)   DRY( 19,219)   DRY( 19,220)   
    DRY( 20,  1)   DRY( 20,  2)   DRY( 20,  3)   DRY( 20,  4)   DRY( 20,  5)   
    DRY( 20,  6)   DRY( 20,  7)   DRY( 20,  8)   DRY( 20,  9)   DRY( 20, 10)   
    DRY( 20, 11)   DRY( 20, 12)   DRY( 20, 13)   DRY( 20, 14)   DRY( 20, 15)   
    DRY( 20, 16)   DRY( 20, 17)   DRY( 20, 18)   DRY( 20, 19)   DRY( 20, 20)   
    DRY( 20, 21)   DRY( 20, 22)   DRY( 20, 23)   DRY( 20, 24)   DRY( 20, 25)   
    DRY( 20, 26)   DRY( 20, 27)   DRY( 20, 28)   DRY( 20, 29)   DRY( 20, 30)   
    DRY( 20, 31)   DRY( 20, 32)   DRY( 20, 33)   DRY( 20, 34)   DRY( 20, 35)   
    DRY( 20, 36)   DRY( 20, 37)   DRY( 20, 38)   DRY( 20, 39)   DRY( 20, 40)   
    DRY( 20, 41)   DRY( 20, 42)   DRY( 20, 43)   DRY( 20, 44)   DRY( 20, 45)   
    DRY( 20, 46)   DRY( 20, 47)   DRY( 20, 48)   DRY( 20, 49)   DRY( 20, 50)   
    DRY( 20, 51)   DRY( 20, 52)   DRY( 20, 53)   DRY( 20, 54)   DRY( 20, 55)   
    DRY( 20, 56)   DRY( 20, 57)   DRY( 20, 58)   DRY( 20, 59)   DRY( 20, 60)   
    DRY( 20, 61)   DRY( 20, 62)   DRY( 20, 63)   DRY( 20, 64)   DRY( 20, 65)   
    DRY( 20, 66)   DRY( 20, 67)   DRY( 20, 68)   DRY( 20, 69)   DRY( 20, 70)   
    DRY( 20, 71)   DRY( 20, 72)   DRY( 20, 73)   DRY( 20, 74)   DRY( 20, 75)   
    DRY( 20, 76)   DRY( 20, 77)   DRY( 20, 78)   DRY( 20, 79)   DRY( 20, 80)   
    DRY( 20, 81)   DRY( 20, 82)   DRY( 20, 83)   DRY( 20, 84)   DRY( 20, 85)   
    DRY( 20, 86)   DRY( 20, 87)   DRY( 20, 88)   DRY( 20, 89)   DRY( 20, 90)   
    DRY( 20, 91)   DRY( 20, 92)   DRY( 20, 93)   DRY( 20, 94)   DRY( 20, 95)   
    DRY( 20, 96)   DRY( 20, 97)   DRY( 20, 98)   DRY( 20, 99)   DRY( 20,100)   
    DRY( 20,101)   DRY( 20,102)   DRY( 20,103)   DRY( 20,104)   DRY( 20,105)   
    DRY( 20,106)   DRY( 20,107)   DRY( 20,108)   DRY( 20,109)   DRY( 20,110)   
    DRY( 20,111)   DRY( 20,112)   DRY( 20,113)   DRY( 20,114)   DRY( 20,115)   
    DRY( 20,116)   DRY( 20,117)   DRY( 20,118)   DRY( 20,119)   DRY( 20,120)   
    DRY( 20,121)   DRY( 20,122)   DRY( 20,123)   DRY( 20,124)   DRY( 20,125)   
    DRY( 20,126)   DRY( 20,127)   DRY( 20,128)   DRY( 20,129)   DRY( 20,130)   
    DRY( 20,131)   DRY( 20,132)   DRY( 20,133)   DRY( 20,134)   DRY( 20,135)   
    DRY( 20,136)   DRY( 20,137)   DRY( 20,138)   DRY( 20,139)   DRY( 20,140)   
    DRY( 20,141)   DRY( 20,142)   DRY( 20,143)   DRY( 20,144)   DRY( 20,145)   
    DRY( 20,146)   DRY( 20,147)   DRY( 20,148)   DRY( 20,149)   DRY( 20,150)   
    DRY( 20,151)   DRY( 20,152)   DRY( 20,153)   DRY( 20,154)   DRY( 20,155)   
    DRY( 20,156)   DRY( 20,157)   DRY( 20,158)   DRY( 20,159)   DRY( 20,160)   
    DRY( 20,161)   DRY( 20,162)   DRY( 20,163)   DRY( 20,164)   DRY( 20,165)   
    DRY( 20,166)   DRY( 20,167)   DRY( 20,168)   DRY( 20,169)   DRY( 20,170)   
    DRY( 20,171)   DRY( 20,172)   DRY( 20,173)   DRY( 20,174)   DRY( 20,175)   
    DRY( 20,176)   DRY( 20,177)   DRY( 20,178)   DRY( 20,179)   DRY( 20,180)   
    DRY( 20,181)   DRY( 20,182)   DRY( 20,183)   DRY( 20,184)   DRY( 20,185)   
    DRY( 20,186)   DRY( 20,187)   DRY( 20,188)   DRY( 20,189)   DRY( 20,190)   
    DRY( 20,191)   DRY( 20,192)   DRY( 20,193)   DRY( 20,194)   DRY( 20,195)   
    DRY( 20,196)   DRY( 20,197)   DRY( 20,198)   DRY( 20,199)   DRY( 20,200)   
    DRY( 20,201)   DRY( 20,202)   DRY( 20,203)   DRY( 20,204)   DRY( 20,205)   
    DRY( 20,206)   DRY( 20,207)   DRY( 20,208)   DRY( 20,209)   DRY( 20,210)   
    DRY( 20,211)   DRY( 20,212)   DRY( 20,213)   DRY( 20,214)   DRY( 20,215)   
    DRY( 20,216)   DRY( 20,217)   DRY( 20,218)   DRY( 20,219)   DRY( 20,220)   

 CELL CONVERSIONS FOR ITER.=  2  LAYER=  5  STEP=  1  PERIOD=   1   (ROW,COL)
    DRY(  3,  1)   DRY(  3,  2)   DRY(  3,  3)   DRY(  3,  4)   DRY(  3,  5)   
    DRY(  3,  6)   DRY(  3,  7)   DRY(  3,  8)   DRY(  3,  9)   DRY(  3, 10)   
    DRY(  3, 11)   DRY(  3, 12)   DRY(  3, 13)   DRY(  3, 14)   DRY(  3, 15)   
    DRY(  3, 16)   DRY(  3, 17)   DRY(  3, 18)   DRY(  3, 19)   DRY(  3, 20)   
    DRY(  3, 21)   DRY(  3, 22)   DRY(  3, 23)   DRY(  3, 24)   DRY(  3, 25)   
    DRY(  3, 26)   DRY(  3, 27)   DRY(  3, 28)   DRY(  3, 29)   DRY(  3, 30)   
    DRY(  3, 31)   DRY(  3, 32)   DRY(  3, 33)   DRY(  3, 34)   DRY(  3, 35)   
    DRY(  3, 36)   DRY(  3, 37)   DRY(  3, 38)   DRY(  3, 39)   DRY(  3, 40)   
    DRY(  3, 41)   DRY(  3, 42)   DRY(  3, 43)   DRY(  3, 44)   DRY(  3, 45)   
    DRY(  3, 46)   DRY(  3, 47)   DRY(  3, 48)   DRY(  3, 49)   DRY(  3, 50)   
    DRY(  3, 51)   DRY(  3, 52)   DRY(  3, 53)   DRY(  3, 54)   DRY(  3, 55)   
    DRY(  3, 56)   DRY(  3, 57)   DRY(  3, 58)   DRY(  3, 59)   DRY(  3, 60)   
    DRY(  3, 61)   DRY(  3, 62)   DRY(  3, 63)   DRY(  3, 64)   DRY(  3, 65)   
    DRY(  4,  1)   DRY(  4,  2)   DRY(  4,  3)   DRY(  4,  4)   DRY(  4,  5)   
    DRY(  4,  6)   DRY(  4,  7)   DRY(  4,  8)   DRY(  4,  9)   DRY(  4, 10)   
    DRY(  4, 11)   DRY(  4, 12)   DRY(  4, 13)   DRY(  4, 14)   DRY(  4, 15)   
    DRY(  4, 16)   DRY(  4, 17)   DRY(  4, 18)   DRY(  4, 19)   DRY(  4, 20)   
    DRY(  4, 21)   DRY(  4, 22)   DRY(  4, 23)   DRY(  4, 24)   DRY(  4, 25)   
    DRY(  4, 26)   DRY(  4, 27)   DRY(  4, 28)   DRY(  4, 29)   DRY(  4, 30)   
    DRY(  4, 31)   DRY(  4, 32)   DRY(  4, 33)   DRY(  4, 34)   DRY(  4, 35)   
    DRY(  4, 36)   DRY(  4, 37)   DRY(  4, 38)   DRY(  4, 39)   DRY(  4, 40)   
    DRY(  4, 41)   DRY(  4, 42)   DRY(  4, 43)   DRY(  4, 44)   DRY(  4, 45)   
    DRY(  4, 46)   DRY(  4, 47)   DRY(  4, 48)   DRY(  4, 49)   DRY(  4, 50)   
    DRY(  4, 51)   DRY(  4, 52)   DRY(  4, 53)   DRY(  4, 54)   DRY(  4, 55)   
    DRY(  4, 56)   DRY(  4, 57)   DRY(  4, 58)   DRY(  4, 59)   DRY(  4, 60)   
    DRY(  4, 61)   DRY(  4, 62)   DRY(  4, 63)   DRY(  4, 64)   DRY(  4, 65)   
    DRY(  4, 66)   DRY(  4, 67)   DRY(  4, 68)   DRY(  4, 69)   DRY(  4, 70)   
    DRY(  4, 71)   DRY(  4, 72)   DRY(  4, 73)   DRY(  4, 74)   DRY(  4, 75)   
    DRY(  4, 76)   DRY(  4, 77)   DRY(  4, 78)   DRY(  4, 79)   DRY(  4, 80)   
    DRY(  4, 81)   DRY(  4, 82)   DRY(  4, 83)   DRY(  4, 84)   DRY(  4, 85)   
    DRY(  4, 86)   DRY(  4, 87)   DRY(  4, 88)   DRY(  4, 89)   DRY(  4, 90)   
    DRY(  4, 91)   DRY(  4, 92)   DRY(  4, 93)   DRY(  4, 94)   DRY(  4, 95)   
    DRY(  4, 96)   DRY(  4, 97)   DRY(  4, 98)   DRY(  4, 99)   DRY(  4,100)   
    DRY(  4,101)   DRY(  4,102)   DRY(  4,103)   DRY(  4,104)   DRY(  4,105)   
    DRY(  4,106)   DRY(  4,107)   DRY(  4,108)   DRY(  4,109)   DRY(  4,110)   
    DRY(  4,111)   DRY(  4,112)   DRY(  4,113)   DRY(  4,114)   DRY(  4,115)   
    DRY(  4,116)   DRY(  4,117)   DRY(  4,118)   DRY(  4,119)   DRY(  4,120)   
    DRY(  4,121)   DRY(  4,122)   DRY(  4,123)   DRY(  4,124)   DRY(  4,125)   
    DRY(  4,126)   DRY(  4,127)   DRY(  4,128)   DRY(  4,129)   DRY(  4,130)   
    DRY(  4,131)   DRY(  4,132)   DRY(  4,133)   DRY(  4,134)   DRY(  4,135)   
    DRY(  4,136)   DRY(  4,137)   DRY(  4,138)   DRY(  4,139)   DRY(  4,140)   
    DRY(  4,141)   DRY(  4,142)   DRY(  4,143)   DRY(  4,144)   DRY(  4,145)   
    DRY(  4,146)   DRY(  4,147)   DRY(  4,148)   DRY(  4,149)   DRY(  4,150)   
    DRY(  4,151)   DRY(  4,152)   DRY(  4,153)   DRY(  4,154)   DRY(  4,155)   
    DRY(  4,156)   DRY(  4,157)   DRY(  4,158)   DRY(  4,159)   DRY(  4,160)   
    DRY(  4,161)   DRY(  4,162)   DRY(  4,163)   DRY(  4,164)   DRY(  4,165)   
    DRY(  4,166)   DRY(  4,167)   DRY(  4,168)   DRY(  4,169)   DRY(  4,170)   
    DRY(  4,171)   DRY(  4,172)   DRY(  4,173)   DRY(  4,174)   DRY(  4,175)   
    DRY(  4,176)   DRY(  4,177)   DRY(  4,178)   DRY(  4,179)   DRY(  4,180)   
    DRY(  4,181)   DRY(  4,182)   DRY(  4,183)   DRY(  4,184)   DRY(  4,185)   
    DRY(  4,186)   DRY(  4,187)   DRY(  4,188)   DRY(  4,189)   DRY(  4,190)   
    DRY(  4,191)   DRY(  4,192)   DRY(  4,193)   DRY(  4,194)   DRY(  4,195)   
    DRY(  4,196)   DRY(  4,197)   DRY(  4,198)   DRY(  4,199)   DRY(  4,200)   
    DRY(  4,201)   DRY(  4,202)   DRY(  4,203)   DRY(  4,204)   DRY(  4,205)   
    DRY(  4,206)   DRY(  4,207)   DRY(  4,208)   DRY(  4,209)   DRY(  4,210)   
    DRY(  4,211)   DRY(  4,212)   DRY(  4,213)   DRY(  4,214)   DRY(  4,215)   
    DRY(  4,216)   DRY(  4,217)   DRY(  4,218)   DRY(  4,219)   DRY(  4,220)   
    DRY(  5,  1)   DRY(  5,  2)   DRY(  5,  3)   DRY(  5,  4)   DRY(  5,  5)   
    DRY(  5,  6)   DRY(  5,  7)   DRY(  5,  8)   DRY(  5,  9)   DRY(  5, 10)   
    DRY(  5, 11)   DRY(  5, 12)   DRY(  5, 13)   DRY(  5, 14)   DRY(  5, 15)   
    DRY(  5, 16)   DRY(  5, 17)   DRY(  5, 18)   DRY(  5, 19)   DRY(  5, 20)   
    DRY(  5, 21)   DRY(  5, 22)   DRY(  5, 23)   DRY(  5, 24)   DRY(  5, 25)   
    DRY(  5, 26)   DRY(  5, 27)   DRY(  5, 28)   DRY(  5, 29)   DRY(  5, 30)   
    DRY(  5, 31)   DRY(  5, 32)   DRY(  5, 33)   DRY(  5, 34)   DRY(  5, 35)   
    DRY(  5, 36)   DRY(  5, 37)   DRY(  5, 38)   DRY(  5, 39)   DRY(  5, 40)   
    DRY(  5, 41)   DRY(  5, 42)   DRY(  5, 43)   DRY(  5, 44)   DRY(  5, 45)   
    DRY(  5, 46)   DRY(  5, 47)   DRY(  5, 48)   DRY(  5, 49)   DRY(  5, 50)   
    DRY(  5, 51)   DRY(  5, 52)   DRY(  5, 53)   DRY(  5, 54)   DRY(  5, 55)   
    DRY(  5, 56)   DRY(  5, 57)   DRY(  5, 58)   DRY(  5, 59)   DRY(  5, 60)   
    DRY(  5, 61)   DRY(  5, 62)   DRY(  5, 63)   DRY(  5, 64)   DRY(  5, 65)   
    DRY(  5, 66)   DRY(  5, 67)   DRY(  5, 68)   DRY(  5, 69)   DRY(  5, 70)   
    DRY(  5, 71)   DRY(  5, 72)   DRY(  5, 73)   DRY(  5, 74)   DRY(  5, 75)   
    DRY(  5, 76)   DRY(  5, 77)   DRY(  5, 78)   DRY(  5, 79)   DRY(  5, 80)   
    DRY(  5, 81)   DRY(  5, 82)   DRY(  5, 83)   DRY(  5, 84)   DRY(  5, 85)   
    DRY(  5, 86)   DRY(  5, 87)   DRY(  5, 88)   DRY(  5, 89)   DRY(  5, 90)   
    DRY(  5, 91)   DRY(  5, 92)   DRY(  5, 93)   DRY(  5, 94)   DRY(  5, 95)   
    DRY(  5, 96)   DRY(  5, 97)   DRY(  5, 98)   DRY(  5, 99)   DRY(  5,100)   
    DRY(  5,101)   DRY(  5,102)   DRY(  5,103)   DRY(  5,104)   DRY(  5,105)   
    DRY(  5,106)   DRY(  5,107)   DRY(  5,108)   DRY(  5,109)   DRY(  5,110)   
    DRY(  5,111)   DRY(  5,112)   DRY(  5,113)   DRY(  5,114)   DRY(  5,115)   
    DRY(  5,116)   DRY(  5,117)   DRY(  5,118)   DRY(  5,119)   DRY(  5,120)   
    DRY(  5,121)   DRY(  5,122)   DRY(  5,123)   DRY(  5,124)   DRY(  5,125)   
    DRY(  5,126)   DRY(  5,127)   DRY(  5,128)   DRY(  5,129)   DRY(  5,130)   
    DRY(  5,131)   DRY(  5,132)   DRY(  5,133)   DRY(  5,134)   DRY(  5,135)   
    DRY(  5,136)   DRY(  5,137)   DRY(  5,138)   DRY(  5,139)   DRY(  5,140)   
    DRY(  5,141)   DRY(  5,142)   DRY(  5,143)   DRY(  5,144)   DRY(  5,145)   
    DRY(  5,146)   DRY(  5,147)   DRY(  5,148)   DRY(  5,149)   DRY(  5,150)   
    DRY(  5,151)   DRY(  5,152)   DRY(  5,153)   DRY(  5,154)   DRY(  5,155)   
    DRY(  5,156)   DRY(  5,157)   DRY(  5,158)   DRY(  5,159)   DRY(  5,160)   
    DRY(  5,161)   DRY(  5,162)   DRY(  5,163)   DRY(  5,164)   DRY(  5,165)   
    DRY(  5,166)   DRY(  5,167)   DRY(  5,168)   DRY(  5,169)   DRY(  5,170)   
    DRY(  5,171)   DRY(  5,172)   DRY(  5,173)   DRY(  5,174)   DRY(  5,175)   
    DRY(  5,176)   DRY(  5,177)   DRY(  5,178)   DRY(  5,179)   DRY(  5,180)   
    DRY(  5,181)   DRY(  5,182)   DRY(  5,183)   DRY(  5,184)   DRY(  5,185)   
    DRY(  5,186)   DRY(  5,187)   DRY(  5,188)   DRY(  5,189)   DRY(  5,190)   
    DRY(  5,191)   DRY(  5,192)   DRY(  5,193)   DRY(  5,194)   DRY(  5,195)   
    DRY(  5,196)   DRY(  5,197)   DRY(  5,198)   DRY(  5,199)   DRY(  5,200)   
    DRY(  5,201)   DRY(  5,202)   DRY(  5,203)   DRY(  5,204)   DRY(  5,205)   
    DRY(  5,206)   DRY(  5,207)   DRY(  5,208)   DRY(  5,209)   DRY(  5,210)   
    DRY(  5,211)   DRY(  5,212)   DRY(  5,213)   DRY(  5,214)   DRY(  5,215)   
    DRY(  5,216)   DRY(  5,217)   DRY(  5,218)   DRY(  5,219)   DRY(  5,220)   
    DRY(  6,  1)   DRY(  6,  2)   DRY(  6,  3)   DRY(  6,  4)   DRY(  6,  5)   
    DRY(  6,  6)   DRY(  6,  7)   DRY(  6,  8)   DRY(  6,  9)   DRY(  6, 10)   
    DRY(  6, 11)   DRY(  6, 12)   DRY(  6, 13)   DRY(  6, 14)   DRY(  6, 15)   
    DRY(  6, 16)   DRY(  6, 17)   DRY(  6, 18)   DRY(  6, 19)   DRY(  6, 20)   
    DRY(  6, 21)   DRY(  6, 22)   DRY(  6, 23)   DRY(  6, 24)   DRY(  6, 25)   
    DRY(  6, 26)   DRY(  6, 27)   DRY(  6, 28)   DRY(  6, 29)   DRY(  6, 30)   
    DRY(  6, 31)   DRY(  6, 32)   DRY(  6, 33)   DRY(  6, 34)   DRY(  6, 35)   
    DRY(  6, 36)   DRY(  6, 37)   DRY(  6, 38)   DRY(  6, 39)   DRY(  6, 40)   
    DRY(  6, 41)   DRY(  6, 42)   DRY(  6, 43)   DRY(  6, 44)   DRY(  6, 45)   
    DRY(  6, 46)   DRY(  6, 47)   DRY(  6, 48)   DRY(  6, 49)   DRY(  6, 50)   
    DRY(  6, 51)   DRY(  6, 52)   DRY(  6, 53)   DRY(  6, 54)   DRY(  6, 55)   
    DRY(  6, 56)   DRY(  6, 57)   DRY(  6, 58)   DRY(  6, 59)   DRY(  6, 60)   
    DRY(  6, 61)   DRY(  6, 62)   DRY(  6, 63)   DRY(  6, 64)   DRY(  6, 65)   
    DRY(  6, 66)   DRY(  6, 67)   DRY(  6, 68)   DRY(  6, 69)   DRY(  6, 70)   
    DRY(  6, 71)   DRY(  6, 72)   DRY(  6, 73)   DRY(  6, 74)   DRY(  6, 75)   
    DRY(  6, 76)   DRY(  6, 77)   DRY(  6, 78)   DRY(  6, 79)   DRY(  6, 80)   
    DRY(  6, 81)   DRY(  6, 82)   DRY(  6, 83)   DRY(  6, 84)   DRY(  6, 85)   
    DRY(  6, 86)   DRY(  6, 87)   DRY(  6, 88)   DRY(  6, 89)   DRY(  6, 90)   
    DRY(  6, 91)   DRY(  6, 92)   DRY(  6, 93)   DRY(  6, 94)   DRY(  6, 95)   
    DRY(  6, 96)   DRY(  6, 97)   DRY(  6, 98)   DRY(  6, 99)   DRY(  6,100)   
    DRY(  6,101)   DRY(  6,102)   DRY(  6,103)   DRY(  6,104)   DRY(  6,105)   
    DRY(  6,106)   DRY(  6,107)   DRY(  6,108)   DRY(  6,109)   DRY(  6,110)   
    DRY(  6,111)   DRY(  6,112)   DRY(  6,113)   DRY(  6,114)   DRY(  6,115)   
    DRY(  6,116)   DRY(  6,117)   DRY(  6,118)   DRY(  6,119)   DRY(  6,120)   
    DRY(  6,121)   DRY(  6,122)   DRY(  6,123)   DRY(  6,124)   DRY(  6,125)   
    DRY(  6,126)   DRY(  6,127)   DRY(  6,128)   DRY(  6,129)   DRY(  6,130)   
    DRY(  6,131)   DRY(  6,132)   DRY(  6,133)   DRY(  6,134)   DRY(  6,135)   
    DRY(  6,136)   DRY(  6,137)   DRY(  6,138)   DRY(  6,139)   DRY(  6,140)   
    DRY(  6,141)   DRY(  6,142)   DRY(  6,143)   DRY(  6,144)   DRY(  6,145)   
    DRY(  6,146)   DRY(  6,147)   DRY(  6,148)   DRY(  6,149)   DRY(  6,150)   
    DRY(  6,151)   DRY(  6,152)   DRY(  6,153)   DRY(  6,154)   DRY(  6,155)   
    DRY(  6,156)   DRY(  6,157)   DRY(  6,158)   DRY(  6,159)   DRY(  6,160)   
    DRY(  6,161)   DRY(  6,162)   DRY(  6,163)   DRY(  6,164)   DRY(  6,165)   
    DRY(  6,166)   DRY(  6,167)   DRY(  6,168)   DRY(  6,169)   DRY(  6,170)   
    DRY(  6,171)   DRY(  6,172)   DRY(  6,173)   DRY(  6,174)   DRY(  6,175)   
    DRY(  6,176)   DRY(  6,177)   DRY(  6,178)   DRY(  6,179)   DRY(  6,180)   
    DRY(  6,181)   DRY(  6,182)   DRY(  6,183)   DRY(  6,184)   DRY(  6,185)   
    DRY(  6,186)   DRY(  6,187)   DRY(  6,188)   DRY(  6,189)   DRY(  6,190)   
    DRY(  6,191)   DRY(  6,192)   DRY(  6,193)   DRY(  6,194)   DRY(  6,195)   
    DRY(  6,196)   DRY(  6,197)   DRY(  6,198)   DRY(  6,199)   DRY(  6,200)   
    DRY(  6,201)   DRY(  6,202)   DRY(  6,203)   DRY(  6,204)   DRY(  6,205)   
    DRY(  6,206)   DRY(  6,207)   DRY(  6,208)   DRY(  6,209)   DRY(  6,210)   
    DRY(  6,211)   DRY(  6,212)   DRY(  6,213)   DRY(  6,214)   DRY(  6,215)   
    DRY(  6,216)   DRY(  6,217)   DRY(  6,218)   DRY(  6,219)   DRY(  6,220)   
    DRY(  7,  1)   DRY(  7,  2)   DRY(  7,  3)   DRY(  7,  4)   DRY(  7,  5)   
    DRY(  7,  6)   DRY(  7,  7)   DRY(  7,  8)   DRY(  7,  9)   DRY(  7, 10)   
    DRY(  7, 11)   DRY(  7, 12)   DRY(  7, 13)   DRY(  7, 14)   DRY(  7, 15)   
    DRY(  7, 16)   DRY(  7, 17)   DRY(  7, 18)   DRY(  7, 19)   DRY(  7, 20)   
    DRY(  7, 21)   DRY(  7, 22)   DRY(  7, 23)   DRY(  7, 24)   DRY(  7, 25)   
    DRY(  7, 26)   DRY(  7, 27)   DRY(  7, 28)   DRY(  7, 29)   DRY(  7, 30)   
    DRY(  7, 31)   DRY(  7, 32)   DRY(  7, 33)   DRY(  7, 34)   DRY(  7, 35)   
    DRY(  7, 36)   DRY(  7, 37)   DRY(  7, 38)   DRY(  7, 39)   DRY(  7, 40)   
    DRY(  7, 41)   DRY(  7, 42)   DRY(  7, 43)   DRY(  7, 44)   DRY(  7, 45)   
    DRY(  7, 46)   DRY(  7, 47)   DRY(  7, 48)   DRY(  7, 49)   DRY(  7, 50)   
    DRY(  7, 51)   DRY(  7, 52)   DRY(  7, 53)   DRY(  7, 54)   DRY(  7, 55)   
    DRY(  7, 56)   DRY(  7, 57)   DRY(  7, 58)   DRY(  7, 59)   DRY(  7, 60)   
    DRY(  7, 61)   DRY(  7, 62)   DRY(  7, 63)   DRY(  7, 64)   DRY(  7, 65)   
    DRY(  7, 66)   DRY(  7, 67)   DRY(  7, 68)   DRY(  7, 69)   DRY(  7, 70)   
    DRY(  7, 71)   DRY(  7, 72)   DRY(  7, 73)   DRY(  7, 74)   DRY(  7, 75)   
    DRY(  7, 76)   DRY(  7, 77)   DRY(  7, 78)   DRY(  7, 79)   DRY(  7, 80)   
    DRY(  7, 81)   DRY(  7, 82)   DRY(  7, 83)   DRY(  7, 84)   DRY(  7, 85)   
    DRY(  7, 86)   DRY(  7, 87)   DRY(  7, 88)   DRY(  7, 89)   DRY(  7, 90)   
    DRY(  7, 91)   DRY(  7, 92)   DRY(  7, 93)   DRY(  7, 94)   DRY(  7, 95)   
    DRY(  7, 96)   DRY(  7, 97)   DRY(  7, 98)   DRY(  7, 99)   DRY(  7,100)   
    DRY(  7,101)   DRY(  7,102)   DRY(  7,103)   DRY(  7,104)   DRY(  7,105)   
    DRY(  7,106)   DRY(  7,107)   DRY(  7,108)   DRY(  7,109)   DRY(  7,110)   
    DRY(  7,111)   DRY(  7,112)   DRY(  7,113)   DRY(  7,114)   DRY(  7,115)   
    DRY(  7,116)   DRY(  7,117)   DRY(  7,118)   DRY(  7,119)   DRY(  7,120)   
    DRY(  7,121)   DRY(  7,122)   DRY(  7,123)   DRY(  7,124)   DRY(  7,125)   
    DRY(  7,126)   DRY(  7,127)   DRY(  7,128)   DRY(  7,129)   DRY(  7,130)   
    DRY(  7,131)   DRY(  7,132)   DRY(  7,133)   DRY(  7,134)   DRY(  7,135)   
    DRY(  7,136)   DRY(  7,137)   DRY(  7,138)   DRY(  7,139)   DRY(  7,140)   
    DRY(  7,141)   DRY(  7,142)   DRY(  7,143)   DRY(  7,144)   DRY(  7,145)   
    DRY(  7,146)   DRY(  7,147)   DRY(  7,148)   DRY(  7,149)   DRY(  7,150)   
    DRY(  7,151)   DRY(  7,152)   DRY(  7,153)   DRY(  7,154)   DRY(  7,155)   
    DRY(  7,156)   DRY(  7,157)   DRY(  7,158)   DRY(  7,159)   DRY(  7,160)   
    DRY(  7,161)   DRY(  7,162)   DRY(  7,163)   DRY(  7,164)   DRY(  7,165)   
    DRY(  7,166)   DRY(  7,167)   DRY(  7,168)   DRY(  7,169)   DRY(  7,170)   
    DRY(  7,171)   DRY(  7,172)   DRY(  7,173)   DRY(  7,174)   DRY(  7,175)   
    DRY(  7,176)   DRY(  7,177)   DRY(  7,178)   DRY(  7,179)   DRY(  7,180)   
    DRY(  7,181)   DRY(  7,182)   DRY(  7,183)   DRY(  7,184)   DRY(  7,185)   
    DRY(  7,186)   DRY(  7,187)   DRY(  7,188)   DRY(  7,189)   DRY(  7,190)   
    DRY(  7,191)   DRY(  7,192)   DRY(  7,193)   DRY(  7,194)   DRY(  7,195)   
    DRY(  7,196)   DRY(  7,197)   DRY(  7,198)   DRY(  7,199)   DRY(  7,200)   
    DRY(  7,201)   DRY(  7,202)   DRY(  7,203)   DRY(  7,204)   DRY(  7,205)   
    DRY(  7,206)   DRY(  7,207)   DRY(  7,208)   DRY(  7,209)   DRY(  7,210)   
    DRY(  7,211)   DRY(  7,212)   DRY(  7,213)   DRY(  7,214)   DRY(  7,215)   
    DRY(  7,216)   DRY(  7,217)   DRY(  7,218)   DRY(  7,219)   DRY(  7,220)   
    DRY(  8,  1)   DRY(  8,  2)   DRY(  8,  3)   DRY(  8,  4)   DRY(  8,  5)   
    DRY(  8,  6)   DRY(  8,  7)   DRY(  8,  8)   DRY(  8,  9)   DRY(  8, 10)   
    DRY(  8, 11)   DRY(  8, 12)   DRY(  8, 13)   DRY(  8, 14)   DRY(  8, 15)   
    DRY(  8, 16)   DRY(  8, 17)   DRY(  8, 18)   DRY(  8, 19)   DRY(  8, 20)   
    DRY(  8, 21)   DRY(  8, 22)   DRY(  8, 23)   DRY(  8, 24)   DRY(  8, 25)   
    DRY(  8, 26)   DRY(  8, 27)   DRY(  8, 28)   DRY(  8, 29)   DRY(  8, 30)   
    DRY(  8, 31)   DRY(  8, 32)   DRY(  8, 33)   DRY(  8, 34)   DRY(  8, 35)   
    DRY(  8, 36)   DRY(  8, 37)   DRY(  8, 38)   DRY(  8, 39)   DRY(  8, 40)   
    DRY(  8, 41)   DRY(  8, 42)   DRY(  8, 43)   DRY(  8, 44)   DRY(  8, 45)   
    DRY(  8, 46)   DRY(  8, 47)   DRY(  8, 48)   DRY(  8, 49)   DRY(  8, 50)   
    DRY(  8, 51)   DRY(  8, 52)   DRY(  8, 53)   DRY(  8, 54)   DRY(  8, 55)   
    DRY(  8, 56)   DRY(  8, 57)   DRY(  8, 58)   DRY(  8, 59)   DRY(  8, 60)   
    DRY(  8, 61)   DRY(  8, 62)   DRY(  8, 63)   DRY(  8, 64)   DRY(  8, 65)   
    DRY(  8, 66)   DRY(  8, 67)   DRY(  8, 68)   DRY(  8, 69)   DRY(  8, 70)   
    DRY(  8, 71)   DRY(  8, 72)   DRY(  8, 73)   DRY(  8, 74)   DRY(  8, 75)   
    DRY(  8, 76)   DRY(  8, 77)   DRY(  8, 78)   DRY(  8, 79)   DRY(  8, 80)   
    DRY(  8, 81)   DRY(  8, 82)   DRY(  8, 83)   DRY(  8, 84)   DRY(  8, 85)   
    DRY(  8, 86)   DRY(  8, 87)   DRY(  8, 88)   DRY(  8, 89)   DRY(  8, 90)   
    DRY(  8, 91)   DRY(  8, 92)   DRY(  8, 93)   DRY(  8, 94)   DRY(  8, 95)   
    DRY(  8, 96)   DRY(  8, 97)   DRY(  8, 98)   DRY(  8, 99)   DRY(  8,100)   
    DRY(  8,101)   DRY(  8,102)   DRY(  8,103)   DRY(  8,104)   DRY(  8,105)   
    DRY(  8,106)   DRY(  8,107)   DRY(  8,108)   DRY(  8,109)   DRY(  8,110)   
    DRY(  8,111)   DRY(  8,112)   DRY(  8,113)   DRY(  8,114)   DRY(  8,115)   
    DRY(  8,116)   DRY(  8,117)   DRY(  8,118)   DRY(  8,119)   DRY(  8,120)   
    DRY(  8,121)   DRY(  8,122)   DRY(  8,123)   DRY(  8,124)   DRY(  8,125)   
    DRY(  8,126)   DRY(  8,127)   DRY(  8,128)   DRY(  8,129)   DRY(  8,130)   
    DRY(  8,131)   DRY(  8,132)   DRY(  8,133)   DRY(  8,134)   DRY(  8,135)   
    DRY(  8,136)   DRY(  8,137)   DRY(  8,138)   DRY(  8,139)   DRY(  8,140)   
    DRY(  8,141)   DRY(  8,142)   DRY(  8,143)   DRY(  8,144)   DRY(  8,145)   
    DRY(  8,146)   DRY(  8,147)   DRY(  8,148)   DRY(  8,149)   DRY(  8,150)   
    DRY(  8,151)   DRY(  8,152)   DRY(  8,153)   DRY(  8,154)   DRY(  8,155)   
    DRY(  8,156)   DRY(  8,157)   DRY(  8,158)   DRY(  8,159)   DRY(  8,160)   
    DRY(  8,161)   DRY(  8,162)   DRY(  8,163)   DRY(  8,164)   DRY(  8,165)   
    DRY(  8,166)   DRY(  8,167)   DRY(  8,168)   DRY(  8,169)   DRY(  8,170)   
    DRY(  8,171)   DRY(  8,172)   DRY(  8,173)   DRY(  8,174)   DRY(  8,175)   
    DRY(  8,176)   DRY(  8,177)   DRY(  8,178)   DRY(  8,179)   DRY(  8,180)   
    DRY(  8,181)   DRY(  8,182)   DRY(  8,183)   DRY(  8,184)   DRY(  8,185)   
    DRY(  8,186)   DRY(  8,187)   DRY(  8,188)   DRY(  8,189)   DRY(  8,190)   
    DRY(  8,191)   DRY(  8,192)   DRY(  8,193)   DRY(  8,194)   DRY(  8,195)   
    DRY(  8,196)   DRY(  8,197)   DRY(  8,198)   DRY(  8,199)   DRY(  8,200)   
    DRY(  8,201)   DRY(  8,202)   DRY(  8,203)   DRY(  8,204)   DRY(  8,205)   
    DRY(  8,206)   DRY(  8,207)   DRY(  8,208)   DRY(  8,209)   DRY(  8,210)   
    DRY(  8,211)   DRY(  8,212)   DRY(  8,213)   DRY(  8,214)   DRY(  8,215)   
    DRY(  8,216)   DRY(  8,217)   DRY(  8,218)   DRY(  8,219)   DRY(  8,220)   
    DRY(  9,  1)   DRY(  9,  2)   DRY(  9,  3)   DRY(  9,  4)   DRY(  9,  5)   
    DRY(  9,  6)   DRY(  9,  7)   DRY(  9,  8)   DRY(  9,  9)   DRY(  9, 10)   
    DRY(  9, 11)   DRY(  9, 12)   DRY(  9, 13)   DRY(  9, 14)   DRY(  9, 15)   
    DRY(  9, 16)   DRY(  9, 17)   DRY(  9, 18)   DRY(  9, 19)   DRY(  9, 20)   
    DRY(  9, 21)   DRY(  9, 22)   DRY(  9, 23)   DRY(  9, 24)   DRY(  9, 25)   
    DRY(  9, 26)   DRY(  9, 27)   DRY(  9, 28)   DRY(  9, 29)   DRY(  9, 30)   
    DRY(  9, 31)   DRY(  9, 32)   DRY(  9, 33)   DRY(  9, 34)   DRY(  9, 35)   
    DRY(  9, 36)   DRY(  9, 37)   DRY(  9, 38)   DRY(  9, 39)   DRY(  9, 40)   
    DRY(  9, 41)   DRY(  9, 42)   DRY(  9, 43)   DRY(  9, 44)   DRY(  9, 45)   
    DRY(  9, 46)   DRY(  9, 47)   DRY(  9, 48)   DRY(  9, 49)   DRY(  9, 50)   
    DRY(  9, 51)   DRY(  9, 52)   DRY(  9, 53)   DRY(  9, 54)   DRY(  9, 55)   
    DRY(  9, 56)   DRY(  9, 57)   DRY(  9, 58)   DRY(  9, 59)   DRY(  9, 60)   
    DRY(  9, 61)   DRY(  9, 62)   DRY(  9, 63)   DRY(  9, 64)   DRY(  9, 65)   
    DRY(  9, 66)   DRY(  9, 67)   DRY(  9, 68)   DRY(  9, 69)   DRY(  9, 70)   
    DRY(  9, 71)   DRY(  9, 72)   DRY(  9, 73)   DRY(  9, 74)   DRY(  9, 75)   
    DRY(  9, 76)   DRY(  9, 77)   DRY(  9, 78)   DRY(  9, 79)   DRY(  9, 80)   
    DRY(  9, 81)   DRY(  9, 82)   DRY(  9, 83)   DRY(  9, 84)   DRY(  9, 85)   
    DRY(  9, 86)   DRY(  9, 87)   DRY(  9, 88)   DRY(  9, 89)   DRY(  9, 90)   
    DRY(  9, 91)   DRY(  9, 92)   DRY(  9, 93)   DRY(  9, 94)   DRY(  9, 95)   
    DRY(  9, 96)   DRY(  9, 97)   DRY(  9, 98)   DRY(  9, 99)   DRY(  9,100)   
    DRY(  9,101)   DRY(  9,102)   DRY(  9,103)   DRY(  9,104)   DRY(  9,105)   
    DRY(  9,106)   DRY(  9,107)   DRY(  9,108)   DRY(  9,109)   DRY(  9,110)   
    DRY(  9,111)   DRY(  9,112)   DRY(  9,113)   DRY(  9,114)   DRY(  9,115)   
    DRY(  9,116)   DRY(  9,117)   DRY(  9,118)   DRY(  9,119)   DRY(  9,120)   
    DRY(  9,121)   DRY(  9,122)   DRY(  9,123)   DRY(  9,124)   DRY(  9,125)   
    DRY(  9,126)   DRY(  9,127)   DRY(  9,128)   DRY(  9,129)   DRY(  9,130)   
    DRY(  9,131)   DRY(  9,132)   DRY(  9,133)   DRY(  9,134)   DRY(  9,135)   
    DRY(  9,136)   DRY(  9,137)   DRY(  9,138)   DRY(  9,139)   DRY(  9,140)   
    DRY(  9,141)   DRY(  9,142)   DRY(  9,143)   DRY(  9,144)   DRY(  9,145)   
    DRY(  9,146)   DRY(  9,147)   DRY(  9,148)   DRY(  9,149)   DRY(  9,150)   
    DRY(  9,151)   DRY(  9,152)   DRY(  9,153)   DRY(  9,154)   DRY(  9,155)   
    DRY(  9,156)   DRY(  9,157)   DRY(  9,158)   DRY(  9,159)   DRY(  9,160)   
    DRY(  9,161)   DRY(  9,162)   DRY(  9,163)   DRY(  9,164)   DRY(  9,165)   
    DRY(  9,166)   DRY(  9,167)   DRY(  9,168)   DRY(  9,169)   DRY(  9,170)   
    DRY(  9,171)   DRY(  9,172)   DRY(  9,173)   DRY(  9,174)   DRY(  9,175)   
    DRY(  9,176)   DRY(  9,177)   DRY(  9,178)   DRY(  9,179)   DRY(  9,180)   
    DRY(  9,181)   DRY(  9,182)   DRY(  9,183)   DRY(  9,184)   DRY(  9,185)   
    DRY(  9,186)   DRY(  9,187)   DRY(  9,188)   DRY(  9,189)   DRY(  9,190)   
    DRY(  9,191)   DRY(  9,192)   DRY(  9,193)   DRY(  9,194)   DRY(  9,195)   
    DRY(  9,196)   DRY(  9,197)   DRY(  9,198)   DRY(  9,199)   DRY(  9,200)   
    DRY(  9,201)   DRY(  9,202)   DRY(  9,203)   DRY(  9,204)   DRY(  9,205)   
    DRY(  9,206)   DRY(  9,207)   DRY(  9,208)   DRY(  9,209)   DRY(  9,210)   
    DRY(  9,211)   DRY(  9,212)   DRY(  9,213)   DRY(  9,214)   DRY(  9,215)   
    DRY(  9,216)   DRY(  9,217)   DRY(  9,218)   DRY(  9,219)   DRY(  9,220)   
    DRY( 10,  1)   DRY( 10,  2)   DRY( 10,  3)   DRY( 10,  4)   DRY( 10,  5)   
    DRY( 10,  6)   DRY( 10,  7)   DRY( 10,  8)   DRY( 10,  9)   DRY( 10, 10)   
    DRY( 10, 11)   DRY( 10, 12)   DRY( 10, 13)   DRY( 10, 14)   DRY( 10, 15)   
    DRY( 10, 16)   DRY( 10, 17)   DRY( 10, 18)   DRY( 10, 19)   DRY( 10, 20)   
    DRY( 10, 21)   DRY( 10, 22)   DRY( 10, 23)   DRY( 10, 24)   DRY( 10, 25)   
    DRY( 10, 26)   DRY( 10, 27)   DRY( 10, 28)   DRY( 10, 29)   DRY( 10, 30)   
    DRY( 10, 31)   DRY( 10, 32)   DRY( 10, 33)   DRY( 10, 34)   DRY( 10, 35)   
    DRY( 10, 36)   DRY( 10, 37)   DRY( 10, 38)   DRY( 10, 39)   DRY( 10, 40)   
    DRY( 10, 41)   DRY( 10, 42)   DRY( 10, 43)   DRY( 10, 44)   DRY( 10, 45)   
    DRY( 10, 46)   DRY( 10, 47)   DRY( 10, 48)   DRY( 10, 49)   DRY( 10, 50)   
    DRY( 10, 51)   DRY( 10, 52)   DRY( 10, 53)   DRY( 10, 54)   DRY( 10, 55)   
    DRY( 10, 56)   DRY( 10, 57)   DRY( 10, 58)   DRY( 10, 59)   DRY( 10, 60)   
    DRY( 10, 61)   DRY( 10, 62)   DRY( 10, 63)   DRY( 10, 64)   DRY( 10, 65)   
    DRY( 10, 66)   DRY( 10, 67)   DRY( 10, 68)   DRY( 10, 69)   DRY( 10, 70)   
    DRY( 10, 71)   DRY( 10, 72)   DRY( 10, 73)   DRY( 10, 74)   DRY( 10, 75)   
    DRY( 10, 76)   DRY( 10, 77)   DRY( 10, 78)   DRY( 10, 79)   DRY( 10, 80)   
    DRY( 10, 81)   DRY( 10, 82)   DRY( 10, 83)   DRY( 10, 84)   DRY( 10, 85)   
    DRY( 10, 86)   DRY( 10, 87)   DRY( 10, 88)   DRY( 10, 89)   DRY( 10, 90)   
    DRY( 10, 91)   DRY( 10, 92)   DRY( 10, 93)   DRY( 10, 94)   DRY( 10, 95)   
    DRY( 10, 96)   DRY( 10, 97)   DRY( 10, 98)   DRY( 10, 99)   DRY( 10,100)   
    DRY( 10,101)   DRY( 10,102)   DRY( 10,103)   DRY( 10,104)   DRY( 10,105)   
    DRY( 10,106)   DRY( 10,107)   DRY( 10,108)   DRY( 10,109)   DRY( 10,110)   
    DRY( 10,111)   DRY( 10,112)   DRY( 10,113)   DRY( 10,114)   DRY( 10,115)   
    DRY( 10,116)   DRY( 10,117)   DRY( 10,118)   DRY( 10,119)   DRY( 10,120)   
    DRY( 10,121)   DRY( 10,122)   DRY( 10,123)   DRY( 10,124)   DRY( 10,125)   
    DRY( 10,126)   DRY( 10,127)   DRY( 10,128)   DRY( 10,129)   DRY( 10,130)   
    DRY( 10,131)   DRY( 10,132)   DRY( 10,133)   DRY( 10,134)   DRY( 10,135)   
    DRY( 10,136)   DRY( 10,137)   DRY( 10,138)   DRY( 10,139)   DRY( 10,140)   
    DRY( 10,141)   DRY( 10,142)   DRY( 10,143)   DRY( 10,144)   DRY( 10,145)   
    DRY( 10,146)   DRY( 10,147)   DRY( 10,148)   DRY( 10,149)   DRY( 10,150)   
    DRY( 10,151)   DRY( 10,152)   DRY( 10,153)   DRY( 10,154)   DRY( 10,155)   
    DRY( 10,156)   DRY( 10,157)   DRY( 10,158)   DRY( 10,159)   DRY( 10,160)   
    DRY( 10,161)   DRY( 10,162)   DRY( 10,163)   DRY( 10,164)   DRY( 10,165)   
    DRY( 10,166)   DRY( 10,167)   DRY( 10,168)   DRY( 10,169)   DRY( 10,170)   
    DRY( 10,171)   DRY( 10,172)   DRY( 10,173)   DRY( 10,174)   DRY( 10,175)   
    DRY( 10,176)   DRY( 10,177)   DRY( 10,178)   DRY( 10,179)   DRY( 10,180)   
    DRY( 10,181)   DRY( 10,182)   DRY( 10,183)   DRY( 10,184)   DRY( 10,185)   
    DRY( 10,186)   DRY( 10,187)   DRY( 10,188)   DRY( 10,189)   DRY( 10,190)   
    DRY( 10,191)   DRY( 10,192)   DRY( 10,193)   DRY( 10,194)   DRY( 10,195)   
    DRY( 10,196)   DRY( 10,197)   DRY( 10,198)   DRY( 10,199)   DRY( 10,200)   
    DRY( 10,201)   DRY( 10,202)   DRY( 10,203)   DRY( 10,204)   DRY( 10,205)   
    DRY( 10,206)   DRY( 10,207)   DRY( 10,208)   DRY( 10,209)   DRY( 10,210)   
    DRY( 10,211)   DRY( 10,212)   DRY( 10,213)   DRY( 10,214)   DRY( 10,215)   
    DRY( 10,216)   DRY( 10,217)   DRY( 10,218)   DRY( 10,219)   DRY( 10,220)   
    DRY( 11,  1)   DRY( 11,  2)   DRY( 11,  3)   DRY( 11,  4)   DRY( 11,  5)   
    DRY( 11,  6)   DRY( 11,  7)   DRY( 11,  8)   DRY( 11,  9)   DRY( 11, 10)   
    DRY( 11, 11)   DRY( 11, 12)   DRY( 11, 13)   DRY( 11, 14)   DRY( 11, 15)   
    DRY( 11, 16)   DRY( 11, 17)   DRY( 11, 18)   DRY( 11, 19)   DRY( 11, 20)   
    DRY( 11, 21)   DRY( 11, 22)   DRY( 11, 23)   DRY( 11, 24)   DRY( 11, 25)   
    DRY( 11, 26)   DRY( 11, 27)   DRY( 11, 28)   DRY( 11, 29)   DRY( 11, 30)   
    DRY( 11, 31)   DRY( 11, 32)   DRY( 11, 33)   DRY( 11, 34)   DRY( 11, 35)   
    DRY( 11, 36)   DRY( 11, 37)   DRY( 11, 38)   DRY( 11, 39)   DRY( 11, 40)   
    DRY( 11, 41)   DRY( 11, 42)   DRY( 11, 43)   DRY( 11, 44)   DRY( 11, 45)   
    DRY( 11, 46)   DRY( 11, 47)   DRY( 11, 48)   DRY( 11, 49)   DRY( 11, 50)   
    DRY( 11, 51)   DRY( 11, 52)   DRY( 11, 53)   DRY( 11, 54)   DRY( 11, 55)   
    DRY( 11, 56)   DRY( 11, 57)   DRY( 11, 58)   DRY( 11, 59)   DRY( 11, 60)   
    DRY( 11, 61)   DRY( 11, 62)   DRY( 11, 63)   DRY( 11, 64)   DRY( 11, 65)   
    DRY( 11, 66)   DRY( 11, 67)   DRY( 11, 68)   DRY( 11, 69)   DRY( 11, 70)   
    DRY( 11, 71)   DRY( 11, 72)   DRY( 11, 73)   DRY( 11, 74)   DRY( 11, 75)   
    DRY( 11, 76)   DRY( 11, 77)   DRY( 11, 78)   DRY( 11, 79)   DRY( 11, 80)   
    DRY( 11, 81)   DRY( 11, 82)   DRY( 11, 83)   DRY( 11, 84)   DRY( 11, 85)   
    DRY( 11, 86)   DRY( 11, 87)   DRY( 11, 88)   DRY( 11, 89)   DRY( 11, 90)   
    DRY( 11, 91)   DRY( 11, 92)   DRY( 11, 93)   DRY( 11, 94)   DRY( 11, 95)   
    DRY( 11, 96)   DRY( 11, 97)   DRY( 11, 98)   DRY( 11, 99)   DRY( 11,100)   
    DRY( 11,101)   DRY( 11,102)   DRY( 11,103)   DRY( 11,104)   DRY( 11,105)   
    DRY( 11,106)   DRY( 11,107)   DRY( 11,108)   DRY( 11,109)   DRY( 11,110)   
    DRY( 11,111)   DRY( 11,112)   DRY( 11,113)   DRY( 11,114)   DRY( 11,115)   
    DRY( 11,116)   DRY( 11,117)   DRY( 11,118)   DRY( 11,119)   DRY( 11,120)   
    DRY( 11,121)   DRY( 11,122)   DRY( 11,123)   DRY( 11,124)   DRY( 11,125)   
    DRY( 11,126)   DRY( 11,127)   DRY( 11,128)   DRY( 11,129)   DRY( 11,130)   
    DRY( 11,131)   DRY( 11,132)   DRY( 11,133)   DRY( 11,134)   DRY( 11,135)   
    DRY( 11,136)   DRY( 11,137)   DRY( 11,138)   DRY( 11,139)   DRY( 11,140)   
    DRY( 11,141)   DRY( 11,142)   DRY( 11,143)   DRY( 11,144)   DRY( 11,145)   
    DRY( 11,146)   DRY( 11,147)   DRY( 11,148)   DRY( 11,149)   DRY( 11,150)   
    DRY( 11,151)   DRY( 11,152)   DRY( 11,153)   DRY( 11,154)   DRY( 11,155)   
    DRY( 11,156)   DRY( 11,157)   DRY( 11,158)   DRY( 11,159)   DRY( 11,160)   
    DRY( 11,161)   DRY( 11,162)   DRY( 11,163)   DRY( 11,164)   DRY( 11,165)   
    DRY( 11,166)   DRY( 11,167)   DRY( 11,168)   DRY( 11,169)   DRY( 11,170)   
    DRY( 11,171)   DRY( 11,172)   DRY( 11,173)   DRY( 11,174)   DRY( 11,175)   
    DRY( 11,176)   DRY( 11,177)   DRY( 11,178)   DRY( 11,179)   DRY( 11,180)   
    DRY( 11,181)   DRY( 11,182)   DRY( 11,183)   DRY( 11,184)   DRY( 11,185)   
    DRY( 11,186)   DRY( 11,187)   DRY( 11,188)   DRY( 11,189)   DRY( 11,190)   
    DRY( 11,191)   DRY( 11,192)   DRY( 11,193)   DRY( 11,194)   DRY( 11,195)   
    DRY( 11,196)   DRY( 11,197)   DRY( 11,198)   DRY( 11,199)   DRY( 11,200)   
    DRY( 11,201)   DRY( 11,202)   DRY( 11,203)   DRY( 11,204)   DRY( 11,205)   
    DRY( 11,206)   DRY( 11,207)   DRY( 11,208)   DRY( 11,209)   DRY( 11,210)   
    DRY( 11,211)   DRY( 11,212)   DRY( 11,213)   DRY( 11,214)   DRY( 11,215)   
    DRY( 11,216)   DRY( 11,217)   DRY( 11,218)   DRY( 11,219)   DRY( 11,220)   
    DRY( 12,  1)   DRY( 12,  2)   DRY( 12,  3)   DRY( 12,  4)   DRY( 12,  5)   
    DRY( 12,  6)   DRY( 12,  7)   DRY( 12,  8)   DRY( 12,  9)   DRY( 12, 10)   
    DRY( 12, 11)   DRY( 12, 12)   DRY( 12, 13)   DRY( 12, 14)   DRY( 12, 15)   
    DRY( 12, 16)   DRY( 12, 17)   DRY( 12, 18)   DRY( 12, 19)   DRY( 12, 20)   
    DRY( 12, 21)   DRY( 12, 22)   DRY( 12, 23)   DRY( 12, 24)   DRY( 12, 25)   
    DRY( 12, 26)   DRY( 12, 27)   DRY( 12, 28)   DRY( 12, 29)   DRY( 12, 30)   
    DRY( 12, 31)   DRY( 12, 32)   DRY( 12, 33)   DRY( 12, 34)   DRY( 12, 35)   
    DRY( 12, 36)   DRY( 12, 37)   DRY( 12, 38)   DRY( 12, 39)   DRY( 12, 40)   
    DRY( 12, 41)   DRY( 12, 42)   DRY( 12, 43)   DRY( 12, 44)   DRY( 12, 45)   
    DRY( 12, 46)   DRY( 12, 47)   DRY( 12, 48)   DRY( 12, 49)   DRY( 12, 50)   
    DRY( 12, 51)   DRY( 12, 52)   DRY( 12, 53)   DRY( 12, 54)   DRY( 12, 55)   
    DRY( 12, 56)   DRY( 12, 57)   DRY( 12, 58)   DRY( 12, 59)   DRY( 12, 60)   
    DRY( 12, 61)   DRY( 12, 62)   DRY( 12, 63)   DRY( 12, 64)   DRY( 12, 65)   
    DRY( 12, 66)   DRY( 12, 67)   DRY( 12, 68)   DRY( 12, 69)   DRY( 12, 70)   
    DRY( 12, 71)   DRY( 12, 72)   DRY( 12, 73)   DRY( 12, 74)   DRY( 12, 75)   
    DRY( 12, 76)   DRY( 12, 77)   DRY( 12, 78)   DRY( 12, 79)   DRY( 12, 80)   
    DRY( 12, 81)   DRY( 12, 82)   DRY( 12, 83)   DRY( 12, 84)   DRY( 12, 85)   
    DRY( 12, 86)   DRY( 12, 87)   DRY( 12, 88)   DRY( 12, 89)   DRY( 12, 90)   
    DRY( 12, 91)   DRY( 12, 92)   DRY( 12, 93)   DRY( 12, 94)   DRY( 12, 95)   
    DRY( 12, 96)   DRY( 12, 97)   DRY( 12, 98)   DRY( 12, 99)   DRY( 12,100)   
    DRY( 12,101)   DRY( 12,102)   DRY( 12,103)   DRY( 12,104)   DRY( 12,105)   
    DRY( 12,106)   DRY( 12,107)   DRY( 12,108)   DRY( 12,109)   DRY( 12,110)   
    DRY( 12,111)   DRY( 12,112)   DRY( 12,113)   DRY( 12,114)   DRY( 12,115)   
    DRY( 12,116)   DRY( 12,117)   DRY( 12,118)   DRY( 12,119)   DRY( 12,120)   
    DRY( 12,121)   DRY( 12,122)   DRY( 12,123)   DRY( 12,124)   DRY( 12,125)   
    DRY( 12,126)   DRY( 12,127)   DRY( 12,128)   DRY( 12,129)   DRY( 12,130)   
    DRY( 12,131)   DRY( 12,132)   DRY( 12,133)   DRY( 12,134)   DRY( 12,135)   
    DRY( 12,136)   DRY( 12,137)   DRY( 12,138)   DRY( 12,139)   DRY( 12,140)   
    DRY( 12,141)   DRY( 12,142)   DRY( 12,143)   DRY( 12,144)   DRY( 12,145)   
    DRY( 12,146)   DRY( 12,147)   DRY( 12,148)   DRY( 12,149)   DRY( 12,150)   
    DRY( 12,151)   DRY( 12,152)   DRY( 12,153)   DRY( 12,154)   DRY( 12,155)   
    DRY( 12,156)   DRY( 12,157)   DRY( 12,158)   DRY( 12,159)   DRY( 12,160)   
    DRY( 12,161)   DRY( 12,162)   DRY( 12,163)   DRY( 12,164)   DRY( 12,165)   
    DRY( 12,166)   DRY( 12,167)   DRY( 12,168)   DRY( 12,169)   DRY( 12,170)   
    DRY( 12,171)   DRY( 12,172)   DRY( 12,173)   DRY( 12,174)   DRY( 12,175)   
    DRY( 12,176)   DRY( 12,177)   DRY( 12,178)   DRY( 12,179)   DRY( 12,180)   
    DRY( 12,181)   DRY( 12,182)   DRY( 12,183)   DRY( 12,184)   DRY( 12,185)   
    DRY( 12,186)   DRY( 12,187)   DRY( 12,188)   DRY( 12,189)   DRY( 12,190)   
    DRY( 12,191)   DRY( 12,192)   DRY( 12,193)   DRY( 12,194)   DRY( 12,195)   
    DRY( 12,196)   DRY( 12,197)   DRY( 12,198)   DRY( 12,199)   DRY( 12,200)   
    DRY( 12,201)   DRY( 12,202)   DRY( 12,203)   DRY( 12,204)   DRY( 12,205)   
    DRY( 12,206)   DRY( 12,207)   DRY( 12,208)   DRY( 12,209)   DRY( 12,210)   
    DRY( 12,211)   DRY( 12,212)   DRY( 12,213)   DRY( 12,214)   DRY( 12,215)   
    DRY( 12,216)   DRY( 12,217)   DRY( 12,218)   DRY( 12,219)   DRY( 12,220)   
    DRY( 13,  1)   DRY( 13,  2)   DRY( 13,  3)   DRY( 13,  4)   DRY( 13,  5)   
    DRY( 13,  6)   DRY( 13,  7)   DRY( 13,  8)   DRY( 13,  9)   DRY( 13, 10)   
    DRY( 13, 11)   DRY( 13, 12)   DRY( 13, 13)   DRY( 13, 14)   DRY( 13, 15)   
    DRY( 13, 16)   DRY( 13, 17)   DRY( 13, 18)   DRY( 13, 19)   DRY( 13, 20)   
    DRY( 13, 21)   DRY( 13, 22)   DRY( 13, 23)   DRY( 13, 24)   DRY( 13, 25)   
    DRY( 13, 26)   DRY( 13, 27)   DRY( 13, 28)   DRY( 13, 29)   DRY( 13, 30)   
    DRY( 13, 31)   DRY( 13, 32)   DRY( 13, 33)   DRY( 13, 34)   DRY( 13, 35)   
    DRY( 13, 36)   DRY( 13, 37)   DRY( 13, 38)   DRY( 13, 39)   DRY( 13, 40)   
    DRY( 13, 41)   DRY( 13, 42)   DRY( 13, 43)   DRY( 13, 44)   DRY( 13, 45)   
    DRY( 13, 46)   DRY( 13, 47)   DRY( 13, 48)   DRY( 13, 49)   DRY( 13, 50)   
    DRY( 13, 51)   DRY( 13, 52)   DRY( 13, 53)   DRY( 13, 54)   DRY( 13, 55)   
    DRY( 13, 56)   DRY( 13, 57)   DRY( 13, 58)   DRY( 13, 59)   DRY( 13, 60)   
    DRY( 13, 61)   DRY( 13, 62)   DRY( 13, 63)   DRY( 13, 64)   DRY( 13, 65)   
    DRY( 13, 66)   DRY( 13, 67)   DRY( 13, 68)   DRY( 13, 69)   DRY( 13, 70)   
    DRY( 13, 71)   DRY( 13, 72)   DRY( 13, 73)   DRY( 13, 74)   DRY( 13, 75)   
    DRY( 13, 76)   DRY( 13, 77)   DRY( 13, 78)   DRY( 13, 79)   DRY( 13, 80)   
    DRY( 13, 81)   DRY( 13, 82)   DRY( 13, 83)   DRY( 13, 84)   DRY( 13, 85)   
    DRY( 13, 86)   DRY( 13, 87)   DRY( 13, 88)   DRY( 13, 89)   DRY( 13, 90)   
    DRY( 13, 91)   DRY( 13, 92)   DRY( 13, 93)   DRY( 13, 94)   DRY( 13, 95)   
    DRY( 13, 96)   DRY( 13, 97)   DRY( 13, 98)   DRY( 13, 99)   DRY( 13,100)   
    DRY( 13,101)   DRY( 13,102)   DRY( 13,103)   DRY( 13,104)   DRY( 13,105)   
    DRY( 13,106)   DRY( 13,107)   DRY( 13,108)   DRY( 13,109)   DRY( 13,110)   
    DRY( 13,111)   DRY( 13,112)   DRY( 13,113)   DRY( 13,114)   DRY( 13,115)   
    DRY( 13,116)   DRY( 13,117)   DRY( 13,118)   DRY( 13,119)   DRY( 13,120)   
    DRY( 13,121)   DRY( 13,122)   DRY( 13,123)   DRY( 13,124)   DRY( 13,125)   
    DRY( 13,126)   DRY( 13,127)   DRY( 13,128)   DRY( 13,129)   DRY( 13,130)   
    DRY( 13,131)   DRY( 13,132)   DRY( 13,133)   DRY( 13,134)   DRY( 13,135)   
    DRY( 13,136)   DRY( 13,137)   DRY( 13,138)   DRY( 13,139)   DRY( 13,140)   
    DRY( 13,141)   DRY( 13,142)   DRY( 13,143)   DRY( 13,144)   DRY( 13,145)   
    DRY( 13,146)   DRY( 13,147)   DRY( 13,148)   DRY( 13,149)   DRY( 13,150)   
    DRY( 13,151)   DRY( 13,152)   DRY( 13,153)   DRY( 13,154)   DRY( 13,155)   
    DRY( 13,156)   DRY( 13,157)   DRY( 13,158)   DRY( 13,159)   DRY( 13,160)   
    DRY( 13,161)   DRY( 13,162)   DRY( 13,163)   DRY( 13,164)   DRY( 13,165)   
    DRY( 13,166)   DRY( 13,167)   DRY( 13,168)   DRY( 13,169)   DRY( 13,170)   
    DRY( 13,171)   DRY( 13,172)   DRY( 13,173)   DRY( 13,174)   DRY( 13,175)   
    DRY( 13,176)   DRY( 13,177)   DRY( 13,178)   DRY( 13,179)   DRY( 13,180)   
    DRY( 13,181)   DRY( 13,182)   DRY( 13,183)   DRY( 13,184)   DRY( 13,185)   
    DRY( 13,186)   DRY( 13,187)   DRY( 13,188)   DRY( 13,189)   DRY( 13,190)   
    DRY( 13,191)   DRY( 13,192)   DRY( 13,193)   DRY( 13,194)   DRY( 13,195)   
    DRY( 13,196)   DRY( 13,197)   DRY( 13,198)   DRY( 13,199)   DRY( 13,200)   
    DRY( 13,201)   DRY( 13,202)   DRY( 13,203)   DRY( 13,204)   DRY( 13,205)   
    DRY( 13,206)   DRY( 13,207)   DRY( 13,208)   DRY( 13,209)   DRY( 13,210)   
    DRY( 13,211)   DRY( 13,212)   DRY( 13,213)   DRY( 13,214)   DRY( 13,215)   
    DRY( 13,216)   DRY( 13,217)   DRY( 13,218)   DRY( 13,219)   DRY( 13,220)   
    DRY( 14,  1)   DRY( 14,  2)   DRY( 14,  3)   DRY( 14,  4)   DRY( 14,  5)   
    DRY( 14,  6)   DRY( 14,  7)   DRY( 14,  8)   DRY( 14,  9)   DRY( 14, 10)   
    DRY( 14, 11)   DRY( 14, 12)   DRY( 14, 13)   DRY( 14, 14)   DRY( 14, 15)   
    DRY( 14, 16)   DRY( 14, 17)   DRY( 14, 18)   DRY( 14, 19)   DRY( 14, 20)   
    DRY( 14, 21)   DRY( 14, 22)   DRY( 14, 23)   DRY( 14, 24)   DRY( 14, 25)   
    DRY( 14, 26)   DRY( 14, 27)   DRY( 14, 28)   DRY( 14, 29)   DRY( 14, 30)   
    DRY( 14, 31)   DRY( 14, 32)   DRY( 14, 33)   DRY( 14, 34)   DRY( 14, 35)   
    DRY( 14, 36)   DRY( 14, 37)   DRY( 14, 38)   DRY( 14, 39)   DRY( 14, 40)   
    DRY( 14, 41)   DRY( 14, 42)   DRY( 14, 43)   DRY( 14, 44)   DRY( 14, 45)   
    DRY( 14, 46)   DRY( 14, 47)   DRY( 14, 48)   DRY( 14, 49)   DRY( 14, 50)   
    DRY( 14, 51)   DRY( 14, 52)   DRY( 14, 53)   DRY( 14, 54)   DRY( 14, 55)   
    DRY( 14, 56)   DRY( 14, 57)   DRY( 14, 58)   DRY( 14, 59)   DRY( 14, 60)   
    DRY( 14, 61)   DRY( 14, 62)   DRY( 14, 63)   DRY( 14, 64)   DRY( 14, 65)   
    DRY( 14, 66)   DRY( 14, 67)   DRY( 14, 68)   DRY( 14, 69)   DRY( 14, 70)   
    DRY( 14, 71)   DRY( 14, 72)   DRY( 14, 73)   DRY( 14, 74)   DRY( 14, 75)   
    DRY( 14, 76)   DRY( 14, 77)   DRY( 14, 78)   DRY( 14, 79)   DRY( 14, 80)   
    DRY( 14, 81)   DRY( 14, 82)   DRY( 14, 83)   DRY( 14, 84)   DRY( 14, 85)   
    DRY( 14, 86)   DRY( 14, 87)   DRY( 14, 88)   DRY( 14, 89)   DRY( 14, 90)   
    DRY( 14, 91)   DRY( 14, 92)   DRY( 14, 93)   DRY( 14, 94)   DRY( 14, 95)   
    DRY( 14, 96)   DRY( 14, 97)   DRY( 14, 98)   DRY( 14, 99)   DRY( 14,100)   
    DRY( 14,101)   DRY( 14,102)   DRY( 14,103)   DRY( 14,104)   DRY( 14,105)   
    DRY( 14,106)   DRY( 14,107)   DRY( 14,108)   DRY( 14,109)   DRY( 14,110)   
    DRY( 14,111)   DRY( 14,112)   DRY( 14,113)   DRY( 14,114)   DRY( 14,115)   
    DRY( 14,116)   DRY( 14,117)   DRY( 14,118)   DRY( 14,119)   DRY( 14,120)   
    DRY( 14,121)   DRY( 14,122)   DRY( 14,123)   DRY( 14,124)   DRY( 14,125)   
    DRY( 14,126)   DRY( 14,127)   DRY( 14,128)   DRY( 14,129)   DRY( 14,130)   
    DRY( 14,131)   DRY( 14,132)   DRY( 14,133)   DRY( 14,134)   DRY( 14,135)   
    DRY( 14,136)   DRY( 14,137)   DRY( 14,138)   DRY( 14,139)   DRY( 14,140)   
    DRY( 14,141)   DRY( 14,142)   DRY( 14,143)   DRY( 14,144)   DRY( 14,145)   
    DRY( 14,146)   DRY( 14,147)   DRY( 14,148)   DRY( 14,149)   DRY( 14,150)   
    DRY( 14,151)   DRY( 14,152)   DRY( 14,153)   DRY( 14,154)   DRY( 14,155)   
    DRY( 14,156)   DRY( 14,157)   DRY( 14,158)   DRY( 14,159)   DRY( 14,160)   
    DRY( 14,161)   DRY( 14,162)   DRY( 14,163)   DRY( 14,164)   DRY( 14,165)   
    DRY( 14,166)   DRY( 14,167)   DRY( 14,168)   DRY( 14,169)   DRY( 14,170)   
    DRY( 14,171)   DRY( 14,172)   DRY( 14,173)   DRY( 14,174)   DRY( 14,175)   
    DRY( 14,176)   DRY( 14,177)   DRY( 14,178)   DRY( 14,179)   DRY( 14,180)   
    DRY( 14,181)   DRY( 14,182)   DRY( 14,183)   DRY( 14,184)   DRY( 14,185)   
    DRY( 14,186)   DRY( 14,187)   DRY( 14,188)   DRY( 14,189)   DRY( 14,190)   
    DRY( 14,191)   DRY( 14,192)   DRY( 14,193)   DRY( 14,194)   DRY( 14,195)   
    DRY( 14,196)   DRY( 14,197)   DRY( 14,198)   DRY( 14,199)   DRY( 14,200)   
    DRY( 14,201)   DRY( 14,202)   DRY( 14,203)   DRY( 14,204)   DRY( 14,205)   
    DRY( 14,206)   DRY( 14,207)   DRY( 14,208)   DRY( 14,209)   DRY( 14,210)   
    DRY( 14,211)   DRY( 14,212)   DRY( 14,213)   DRY( 14,214)   DRY( 14,215)   
    DRY( 14,216)   DRY( 14,217)   DRY( 14,218)   DRY( 14,219)   DRY( 14,220)   
    DRY( 15,  1)   DRY( 15,  2)   DRY( 15,  3)   DRY( 15,  4)   DRY( 15,  5)   
    DRY( 15,  6)   DRY( 15,  7)   DRY( 15,  8)   DRY( 15,  9)   DRY( 15, 10)   
    DRY( 15, 11)   DRY( 15, 12)   DRY( 15, 13)   DRY( 15, 14)   DRY( 15, 15)   
    DRY( 15, 16)   DRY( 15, 17)   DRY( 15, 18)   DRY( 15, 19)   DRY( 15, 20)   
    DRY( 15, 21)   DRY( 15, 22)   DRY( 15, 23)   DRY( 15, 24)   DRY( 15, 25)   
    DRY( 15, 26)   DRY( 15, 27)   DRY( 15, 28)   DRY( 15, 29)   DRY( 15, 30)   
    DRY( 15, 31)   DRY( 15, 32)   DRY( 15, 33)   DRY( 15, 34)   DRY( 15, 35)   
    DRY( 15, 36)   DRY( 15, 37)   DRY( 15, 38)   DRY( 15, 39)   DRY( 15, 40)   
    DRY( 15, 41)   DRY( 15, 42)   DRY( 15, 43)   DRY( 15, 44)   DRY( 15, 45)   
    DRY( 15, 46)   DRY( 15, 47)   DRY( 15, 48)   DRY( 15, 49)   DRY( 15, 50)   
    DRY( 15, 51)   DRY( 15, 52)   DRY( 15, 53)   DRY( 15, 54)   DRY( 15, 55)   
    DRY( 15, 56)   DRY( 15, 57)   DRY( 15, 58)   DRY( 15, 59)   DRY( 15, 60)   
    DRY( 15, 61)   DRY( 15, 62)   DRY( 15, 63)   DRY( 15, 64)   DRY( 15, 65)   
    DRY( 15, 66)   DRY( 15, 67)   DRY( 15, 68)   DRY( 15, 69)   DRY( 15, 70)   
    DRY( 15, 71)   DRY( 15, 72)   DRY( 15, 73)   DRY( 15, 74)   DRY( 15, 75)   
    DRY( 15, 76)   DRY( 15, 77)   DRY( 15, 78)   DRY( 15, 79)   DRY( 15, 80)   
    DRY( 15, 81)   DRY( 15, 82)   DRY( 15, 83)   DRY( 15, 84)   DRY( 15, 85)   
    DRY( 15, 86)   DRY( 15, 87)   DRY( 15, 88)   DRY( 15, 89)   DRY( 15, 90)   
    DRY( 15, 91)   DRY( 15, 92)   DRY( 15, 93)   DRY( 15, 94)   DRY( 15, 95)   
    DRY( 15, 96)   DRY( 15, 97)   DRY( 15, 98)   DRY( 15, 99)   DRY( 15,100)   
    DRY( 15,101)   DRY( 15,102)   DRY( 15,103)   DRY( 15,104)   DRY( 15,105)   
    DRY( 15,106)   DRY( 15,107)   DRY( 15,108)   DRY( 15,109)   DRY( 15,110)   
    DRY( 15,111)   DRY( 15,112)   DRY( 15,113)   DRY( 15,114)   DRY( 15,115)   
    DRY( 15,116)   DRY( 15,117)   DRY( 15,118)   DRY( 15,119)   DRY( 15,120)   
    DRY( 15,121)   DRY( 15,122)   DRY( 15,123)   DRY( 15,124)   DRY( 15,125)   
    DRY( 15,126)   DRY( 15,127)   DRY( 15,128)   DRY( 15,129)   DRY( 15,130)   
    DRY( 15,131)   DRY( 15,132)   DRY( 15,133)   DRY( 15,134)   DRY( 15,135)   
    DRY( 15,136)   DRY( 15,137)   DRY( 15,138)   DRY( 15,139)   DRY( 15,140)   
    DRY( 15,141)   DRY( 15,142)   DRY( 15,143)   DRY( 15,144)   DRY( 15,145)   
    DRY( 15,146)   DRY( 15,147)   DRY( 15,148)   DRY( 15,149)   DRY( 15,150)   
    DRY( 15,151)   DRY( 15,152)   DRY( 15,153)   DRY( 15,154)   DRY( 15,155)   
    DRY( 15,156)   DRY( 15,157)   DRY( 15,158)   DRY( 15,159)   DRY( 15,160)   
    DRY( 15,161)   DRY( 15,162)   DRY( 15,163)   DRY( 15,164)   DRY( 15,165)   
    DRY( 15,166)   DRY( 15,167)   DRY( 15,168)   DRY( 15,169)   DRY( 15,170)   
    DRY( 15,171)   DRY( 15,172)   DRY( 15,173)   DRY( 15,174)   DRY( 15,175)   
    DRY( 15,176)   DRY( 15,177)   DRY( 15,178)   DRY( 15,179)   DRY( 15,180)   
    DRY( 15,181)   DRY( 15,182)   DRY( 15,183)   DRY( 15,184)   DRY( 15,185)   
    DRY( 15,186)   DRY( 15,187)   DRY( 15,188)   DRY( 15,189)   DRY( 15,190)   
    DRY( 15,191)   DRY( 15,192)   DRY( 15,193)   DRY( 15,194)   DRY( 15,195)   
    DRY( 15,196)   DRY( 15,197)   DRY( 15,198)   DRY( 15,199)   DRY( 15,200)   
    DRY( 15,201)   DRY( 15,202)   DRY( 15,203)   DRY( 15,204)   DRY( 15,205)   
    DRY( 15,206)   DRY( 15,207)   DRY( 15,208)   DRY( 15,209)   DRY( 15,210)   
    DRY( 15,211)   DRY( 15,212)   DRY( 15,213)   DRY( 15,214)   DRY( 15,215)   
    DRY( 15,216)   DRY( 15,217)   DRY( 15,218)   DRY( 15,219)   DRY( 15,220)   
    DRY( 16,  1)   DRY( 16,  2)   DRY( 16,  3)   DRY( 16,  4)   DRY( 16,  5)   
    DRY( 16,  6)   DRY( 16,  7)   DRY( 16,  8)   DRY( 16,  9)   DRY( 16, 10)   
    DRY( 16, 11)   DRY( 16, 12)   DRY( 16, 13)   DRY( 16, 14)   DRY( 16, 15)   
    DRY( 16, 16)   DRY( 16, 17)   DRY( 16, 18)   DRY( 16, 19)   DRY( 16, 20)   
    DRY( 16, 21)   DRY( 16, 22)   DRY( 16, 23)   DRY( 16, 24)   DRY( 16, 25)   
    DRY( 16, 26)   DRY( 16, 27)   DRY( 16, 28)   DRY( 16, 29)   DRY( 16, 30)   
    DRY( 16, 31)   DRY( 16, 32)   DRY( 16, 33)   DRY( 16, 34)   DRY( 16, 35)   
    DRY( 16, 36)   DRY( 16, 37)   DRY( 16, 38)   DRY( 16, 39)   DRY( 16, 40)   
    DRY( 16, 41)   DRY( 16, 42)   DRY( 16, 43)   DRY( 16, 44)   DRY( 16, 45)   
    DRY( 16, 46)   DRY( 16, 47)   DRY( 16, 48)   DRY( 16, 49)   DRY( 16, 50)   
    DRY( 16, 51)   DRY( 16, 52)   DRY( 16, 53)   DRY( 16, 54)   DRY( 16, 55)   
    DRY( 16, 56)   DRY( 16, 57)   DRY( 16, 58)   DRY( 16, 59)   DRY( 16, 60)   
    DRY( 16, 61)   DRY( 16, 62)   DRY( 16, 63)   DRY( 16, 64)   DRY( 16, 65)   
    DRY( 16, 66)   DRY( 16, 67)   DRY( 16, 68)   DRY( 16, 69)   DRY( 16, 70)   
    DRY( 16, 71)   DRY( 16, 72)   DRY( 16, 73)   DRY( 16, 74)   DRY( 16, 75)   
    DRY( 16, 76)   DRY( 16, 77)   DRY( 16, 78)   DRY( 16, 79)   DRY( 16, 80)   
    DRY( 16, 81)   DRY( 16, 82)   DRY( 16, 83)   DRY( 16, 84)   DRY( 16, 85)   
    DRY( 16, 86)   DRY( 16, 87)   DRY( 16, 88)   DRY( 16, 89)   DRY( 16, 90)   
    DRY( 16, 91)   DRY( 16, 92)   DRY( 16, 93)   DRY( 16, 94)   DRY( 16, 95)   
    DRY( 16, 96)   DRY( 16, 97)   DRY( 16, 98)   DRY( 16, 99)   DRY( 16,100)   
    DRY( 16,101)   DRY( 16,102)   DRY( 16,103)   DRY( 16,104)   DRY( 16,105)   
    DRY( 16,106)   DRY( 16,107)   DRY( 16,108)   DRY( 16,109)   DRY( 16,110)   
    DRY( 16,111)   DRY( 16,112)   DRY( 16,113)   DRY( 16,114)   DRY( 16,115)   
    DRY( 16,116)   DRY( 16,117)   DRY( 16,118)   DRY( 16,119)   DRY( 16,120)   
    DRY( 16,121)   DRY( 16,122)   DRY( 16,123)   DRY( 16,124)   DRY( 16,125)   
    DRY( 16,126)   DRY( 16,127)   DRY( 16,128)   DRY( 16,129)   DRY( 16,130)   
    DRY( 16,131)   DRY( 16,132)   DRY( 16,133)   DRY( 16,134)   DRY( 16,135)   
    DRY( 16,136)   DRY( 16,137)   DRY( 16,138)   DRY( 16,139)   DRY( 16,140)   
    DRY( 16,141)   DRY( 16,142)   DRY( 16,143)   DRY( 16,144)   DRY( 16,145)   
    DRY( 16,146)   DRY( 16,147)   DRY( 16,148)   DRY( 16,149)   DRY( 16,150)   
    DRY( 16,151)   DRY( 16,152)   DRY( 16,153)   DRY( 16,154)   DRY( 16,155)   
    DRY( 16,156)   DRY( 16,157)   DRY( 16,158)   DRY( 16,159)   DRY( 16,160)   
    DRY( 16,161)   DRY( 16,162)   DRY( 16,163)   DRY( 16,164)   DRY( 16,165)   
    DRY( 16,166)   DRY( 16,167)   DRY( 16,168)   DRY( 16,169)   DRY( 16,170)   
    DRY( 16,171)   DRY( 16,172)   DRY( 16,173)   DRY( 16,174)   DRY( 16,175)   
    DRY( 16,176)   DRY( 16,177)   DRY( 16,178)   DRY( 16,179)   DRY( 16,180)   
    DRY( 16,181)   DRY( 16,182)   DRY( 16,183)   DRY( 16,184)   DRY( 16,185)   
    DRY( 16,186)   DRY( 16,187)   DRY( 16,188)   DRY( 16,189)   DRY( 16,190)   
    DRY( 16,191)   DRY( 16,192)   DRY( 16,193)   DRY( 16,194)   DRY( 16,195)   
    DRY( 16,196)   DRY( 16,197)   DRY( 16,198)   DRY( 16,199)   DRY( 16,200)   
    DRY( 16,201)   DRY( 16,202)   DRY( 16,203)   DRY( 16,204)   DRY( 16,205)   
    DRY( 16,206)   DRY( 16,207)   DRY( 16,208)   DRY( 16,209)   DRY( 16,210)   
    DRY( 16,211)   DRY( 16,212)   DRY( 16,213)   DRY( 16,214)   DRY( 16,215)   
    DRY( 16,216)   DRY( 16,217)   DRY( 16,218)   DRY( 16,219)   DRY( 16,220)   
    DRY( 17,  1)   DRY( 17,  2)   DRY( 17,  3)   DRY( 17,  4)   DRY( 17,  5)   
    DRY( 17,  6)   DRY( 17,  7)   DRY( 17,  8)   DRY( 17,  9)   DRY( 17, 10)   
    DRY( 17, 11)   DRY( 17, 12)   DRY( 17, 13)   DRY( 17, 14)   DRY( 17, 15)   
    DRY( 17, 16)   DRY( 17, 17)   DRY( 17, 18)   DRY( 17, 19)   DRY( 17, 20)   
    DRY( 17, 21)   DRY( 17, 22)   DRY( 17, 23)   DRY( 17, 24)   DRY( 17, 25)   
    DRY( 17, 26)   DRY( 17, 27)   DRY( 17, 28)   DRY( 17, 29)   DRY( 17, 30)   
    DRY( 17, 31)   DRY( 17, 32)   DRY( 17, 33)   DRY( 17, 34)   DRY( 17, 35)   
    DRY( 17, 36)   DRY( 17, 37)   DRY( 17, 38)   DRY( 17, 39)   DRY( 17, 40)   
    DRY( 17, 41)   DRY( 17, 42)   DRY( 17, 43)   DRY( 17, 44)   DRY( 17, 45)   
    DRY( 17, 46)   DRY( 17, 47)   DRY( 17, 48)   DRY( 17, 49)   DRY( 17, 50)   
    DRY( 17, 51)   DRY( 17, 52)   DRY( 17, 53)   DRY( 17, 54)   DRY( 17, 55)   
    DRY( 17, 56)   DRY( 17, 57)   DRY( 17, 58)   DRY( 17, 59)   DRY( 17, 60)   
    DRY( 17, 61)   DRY( 17, 62)   DRY( 17, 63)   DRY( 17, 64)   DRY( 17, 65)   
    DRY( 17, 66)   DRY( 17, 67)   DRY( 17, 68)   DRY( 17, 69)   DRY( 17, 70)   
    DRY( 17, 71)   DRY( 17, 72)   DRY( 17, 73)   DRY( 17, 74)   DRY( 17, 75)   
    DRY( 17, 76)   DRY( 17, 77)   DRY( 17, 78)   DRY( 17, 79)   DRY( 17, 80)   
    DRY( 17, 81)   DRY( 17, 82)   DRY( 17, 83)   DRY( 17, 84)   DRY( 17, 85)   
    DRY( 17, 86)   DRY( 17, 87)   DRY( 17, 88)   DRY( 17, 89)   DRY( 17, 90)   
    DRY( 17, 91)   DRY( 17, 92)   DRY( 17, 93)   DRY( 17, 94)   DRY( 17, 95)   
    DRY( 17, 96)   DRY( 17, 97)   DRY( 17, 98)   DRY( 17, 99)   DRY( 17,100)   
    DRY( 17,101)   DRY( 17,102)   DRY( 17,103)   DRY( 17,104)   DRY( 17,105)   
    DRY( 17,106)   DRY( 17,107)   DRY( 17,108)   DRY( 17,109)   DRY( 17,110)   
    DRY( 17,111)   DRY( 17,112)   DRY( 17,113)   DRY( 17,114)   DRY( 17,115)   
    DRY( 17,116)   DRY( 17,117)   DRY( 17,118)   DRY( 17,119)   DRY( 17,120)   
    DRY( 17,121)   DRY( 17,122)   DRY( 17,123)   DRY( 17,124)   DRY( 17,125)   
    DRY( 17,126)   DRY( 17,127)   DRY( 17,128)   DRY( 17,129)   DRY( 17,130)   
    DRY( 17,131)   DRY( 17,132)   DRY( 17,133)   DRY( 17,134)   DRY( 17,135)   
    DRY( 17,136)   DRY( 17,137)   DRY( 17,138)   DRY( 17,139)   DRY( 17,140)   
    DRY( 17,141)   DRY( 17,142)   DRY( 17,143)   DRY( 17,144)   DRY( 17,145)   
    DRY( 17,146)   DRY( 17,147)   DRY( 17,148)   DRY( 17,149)   DRY( 17,150)   
    DRY( 17,151)   DRY( 17,152)   DRY( 17,153)   DRY( 17,154)   DRY( 17,155)   
    DRY( 17,156)   DRY( 17,157)   DRY( 17,158)   DRY( 17,159)   DRY( 17,160)   
    DRY( 17,161)   DRY( 17,162)   DRY( 17,163)   DRY( 17,164)   DRY( 17,165)   
    DRY( 17,166)   DRY( 17,167)   DRY( 17,168)   DRY( 17,169)   DRY( 17,170)   
    DRY( 17,171)   DRY( 17,172)   DRY( 17,173)   DRY( 17,174)   DRY( 17,175)   
    DRY( 17,176)   DRY( 17,177)   DRY( 17,178)   DRY( 17,179)   DRY( 17,180)   
    DRY( 17,181)   DRY( 17,182)   DRY( 17,183)   DRY( 17,184)   DRY( 17,185)   
    DRY( 17,186)   DRY( 17,187)   DRY( 17,188)   DRY( 17,189)   DRY( 17,190)   
    DRY( 17,191)   DRY( 17,192)   DRY( 17,193)   DRY( 17,194)   DRY( 17,195)   
    DRY( 17,196)   DRY( 17,197)   DRY( 17,198)   DRY( 17,199)   DRY( 17,200)   
    DRY( 17,201)   DRY( 17,202)   DRY( 17,203)   DRY( 17,204)   DRY( 17,205)   
    DRY( 17,206)   DRY( 17,207)   DRY( 17,208)   DRY( 17,209)   DRY( 17,210)   
    DRY( 17,211)   DRY( 17,212)   DRY( 17,213)   DRY( 17,214)   DRY( 17,215)   
    DRY( 17,216)   DRY( 17,217)   DRY( 17,218)   DRY( 17,219)   DRY( 17,220)   
    DRY( 18,  1)   DRY( 18,  2)   DRY( 18,  3)   DRY( 18,  4)   DRY( 18,  5)   
    DRY( 18,  6)   DRY( 18,  7)   DRY( 18,  8)   DRY( 18,  9)   DRY( 18, 10)   
    DRY( 18, 11)   DRY( 18, 12)   DRY( 18, 13)   DRY( 18, 14)   DRY( 18, 15)   
    DRY( 18, 16)   DRY( 18, 17)   DRY( 18, 18)   DRY( 18, 19)   DRY( 18, 20)   
    DRY( 18, 21)   DRY( 18, 22)   DRY( 18, 23)   DRY( 18, 24)   DRY( 18, 25)   
    DRY( 18, 26)   DRY( 18, 27)   DRY( 18, 28)   DRY( 18, 29)   DRY( 18, 30)   
    DRY( 18, 31)   DRY( 18, 32)   DRY( 18, 33)   DRY( 18, 34)   DRY( 18, 35)   
    DRY( 18, 36)   DRY( 18, 37)   DRY( 18, 38)   DRY( 18, 39)   DRY( 18, 40)   
    DRY( 18, 41)   DRY( 18, 42)   DRY( 18, 43)   DRY( 18, 44)   DRY( 18, 45)   
    DRY( 18, 46)   DRY( 18, 47)   DRY( 18, 48)   DRY( 18, 49)   DRY( 18, 50)   
    DRY( 18, 51)   DRY( 18, 52)   DRY( 18, 53)   DRY( 18, 54)   DRY( 18, 55)   
    DRY( 18, 56)   DRY( 18, 57)   DRY( 18, 58)   DRY( 18, 59)   DRY( 18, 60)   
    DRY( 18, 61)   DRY( 18, 62)   DRY( 18, 63)   DRY( 18, 64)   DRY( 18, 65)   
    DRY( 18, 66)   DRY( 18, 67)   DRY( 18, 68)   DRY( 18, 69)   DRY( 18, 70)   
    DRY( 18, 71)   DRY( 18, 72)   DRY( 18, 73)   DRY( 18, 74)   DRY( 18, 75)   
    DRY( 18, 76)   DRY( 18, 77)   DRY( 18, 78)   DRY( 18, 79)   DRY( 18, 80)   
    DRY( 18, 81)   DRY( 18, 82)   DRY( 18, 83)   DRY( 18, 84)   DRY( 18, 85)   
    DRY( 18, 86)   DRY( 18, 87)   DRY( 18, 88)   DRY( 18, 89)   DRY( 18, 90)   
    DRY( 18, 91)   DRY( 18, 92)   DRY( 18, 93)   DRY( 18, 94)   DRY( 18, 95)   
    DRY( 18, 96)   DRY( 18, 97)   DRY( 18, 98)   DRY( 18, 99)   DRY( 18,100)   
    DRY( 18,101)   DRY( 18,102)   DRY( 18,103)   DRY( 18,104)   DRY( 18,105)   
    DRY( 18,106)   DRY( 18,107)   DRY( 18,108)   DRY( 18,109)   DRY( 18,110)   
    DRY( 18,111)   DRY( 18,112)   DRY( 18,113)   DRY( 18,114)   DRY( 18,115)   
    DRY( 18,116)   DRY( 18,117)   DRY( 18,118)   DRY( 18,119)   DRY( 18,120)   
    DRY( 18,121)   DRY( 18,122)   DRY( 18,123)   DRY( 18,124)   DRY( 18,125)   
    DRY( 18,126)   DRY( 18,127)   DRY( 18,128)   DRY( 18,129)   DRY( 18,130)   
    DRY( 18,131)   DRY( 18,132)   DRY( 18,133)   DRY( 18,134)   DRY( 18,135)   
    DRY( 18,136)   DRY( 18,137)   DRY( 18,138)   DRY( 18,139)   DRY( 18,140)   
    DRY( 18,141)   DRY( 18,142)   DRY( 18,143)   DRY( 18,144)   DRY( 18,145)   
    DRY( 18,146)   DRY( 18,147)   DRY( 18,148)   DRY( 18,149)   DRY( 18,150)   
    DRY( 18,151)   DRY( 18,152)   DRY( 18,153)   DRY( 18,154)   DRY( 18,155)   
    DRY( 18,156)   DRY( 18,157)   DRY( 18,158)   DRY( 18,159)   DRY( 18,160)   
    DRY( 18,161)   DRY( 18,162)   DRY( 18,163)   DRY( 18,164)   DRY( 18,165)   
    DRY( 18,166)   DRY( 18,167)   DRY( 18,168)   DRY( 18,169)   DRY( 18,170)   
    DRY( 18,171)   DRY( 18,172)   DRY( 18,173)   DRY( 18,174)   DRY( 18,175)   
    DRY( 18,176)   DRY( 18,177)   DRY( 18,178)   DRY( 18,179)   DRY( 18,180)   
    DRY( 18,181)   DRY( 18,182)   DRY( 18,183)   DRY( 18,184)   DRY( 18,185)   
    DRY( 18,186)   DRY( 18,187)   DRY( 18,188)   DRY( 18,189)   DRY( 18,190)   
    DRY( 18,191)   DRY( 18,192)   DRY( 18,193)   DRY( 18,194)   DRY( 18,195)   
    DRY( 18,196)   DRY( 18,197)   DRY( 18,198)   DRY( 18,199)   DRY( 18,200)   
    DRY( 18,201)   DRY( 18,202)   DRY( 18,203)   DRY( 18,204)   DRY( 18,205)   
    DRY( 18,206)   DRY( 18,207)   DRY( 18,208)   DRY( 18,209)   DRY( 18,210)   
    DRY( 18,211)   DRY( 18,212)   DRY( 18,213)   DRY( 18,214)   DRY( 18,215)   
    DRY( 18,216)   DRY( 18,217)   DRY( 18,218)   DRY( 18,219)   DRY( 18,220)   
    DRY( 19,  1)   DRY( 19,  2)   DRY( 19,  3)   DRY( 19,  4)   DRY( 19,  5)   
    DRY( 19,  6)   DRY( 19,  7)   DRY( 19,  8)   DRY( 19,  9)   DRY( 19, 10)   
    DRY( 19, 11)   DRY( 19, 12)   DRY( 19, 13)   DRY( 19, 14)   DRY( 19, 15)   
    DRY( 19, 16)   DRY( 19, 17)   DRY( 19, 18)   DRY( 19, 19)   DRY( 19, 20)   
    DRY( 19, 21)   DRY( 19, 22)   DRY( 19, 23)   DRY( 19, 24)   DRY( 19, 25)   
    DRY( 19, 26)   DRY( 19, 27)   DRY( 19, 28)   DRY( 19, 29)   DRY( 19, 30)   
    DRY( 19, 31)   DRY( 19, 32)   DRY( 19, 33)   DRY( 19, 34)   DRY( 19, 35)   
    DRY( 19, 36)   DRY( 19, 37)   DRY( 19, 38)   DRY( 19, 39)   DRY( 19, 40)   
    DRY( 19, 41)   DRY( 19, 42)   DRY( 19, 43)   DRY( 19, 44)   DRY( 19, 45)   
    DRY( 19, 46)   DRY( 19, 47)   DRY( 19, 48)   DRY( 19, 49)   DRY( 19, 50)   
    DRY( 19, 51)   DRY( 19, 52)   DRY( 19, 53)   DRY( 19, 54)   DRY( 19, 55)   
    DRY( 19, 56)   DRY( 19, 57)   DRY( 19, 58)   DRY( 19, 59)   DRY( 19, 60)   
    DRY( 19, 61)   DRY( 19, 62)   DRY( 19, 63)   DRY( 19, 64)   DRY( 19, 65)   
    DRY( 19, 66)   DRY( 19, 67)   DRY( 19, 68)   DRY( 19, 69)   DRY( 19, 70)   
    DRY( 19, 71)   DRY( 19, 72)   DRY( 19, 73)   DRY( 19, 74)   DRY( 19, 75)   
    DRY( 19, 76)   DRY( 19, 77)   DRY( 19, 78)   DRY( 19, 79)   DRY( 19, 80)   
    DRY( 19, 81)   DRY( 19, 82)   DRY( 19, 83)   DRY( 19, 84)   DRY( 19, 85)   
    DRY( 19, 86)   DRY( 19, 87)   DRY( 19, 88)   DRY( 19, 89)   DRY( 19, 90)   
    DRY( 19, 91)   DRY( 19, 92)   DRY( 19, 93)   DRY( 19, 94)   DRY( 19, 95)   
    DRY( 19, 96)   DRY( 19, 97)   DRY( 19, 98)   DRY( 19, 99)   DRY( 19,100)   
    DRY( 19,101)   DRY( 19,102)   DRY( 19,103)   DRY( 19,104)   DRY( 19,105)   
    DRY( 19,106)   DRY( 19,107)   DRY( 19,108)   DRY( 19,109)   DRY( 19,110)   
    DRY( 19,111)   DRY( 19,112)   DRY( 19,113)   DRY( 19,114)   DRY( 19,115)   
    DRY( 19,116)   DRY( 19,117)   DRY( 19,118)   DRY( 19,119)   DRY( 19,120)   
    DRY( 19,121)   DRY( 19,122)   DRY( 19,123)   DRY( 19,124)   DRY( 19,125)   
    DRY( 19,126)   DRY( 19,127)   DRY( 19,128)   DRY( 19,129)   DRY( 19,130)   
    DRY( 19,131)   DRY( 19,132)   DRY( 19,133)   DRY( 19,134)   DRY( 19,135)   
    DRY( 19,136)   DRY( 19,137)   DRY( 19,138)   DRY( 19,139)   DRY( 19,140)   
    DRY( 19,141)   DRY( 19,142)   DRY( 19,143)   DRY( 19,144)   DRY( 19,145)   
    DRY( 19,146)   DRY( 19,147)   DRY( 19,148)   DRY( 19,149)   DRY( 19,150)   
    DRY( 19,151)   DRY( 19,152)   DRY( 19,153)   DRY( 19,154)   DRY( 19,155)   
    DRY( 19,156)   DRY( 19,157)   DRY( 19,158)   DRY( 19,159)   DRY( 19,160)   
    DRY( 19,161)   DRY( 19,162)   DRY( 19,163)   DRY( 19,164)   DRY( 19,165)   
    DRY( 19,166)   DRY( 19,167)   DRY( 19,168)   DRY( 19,169)   DRY( 19,170)   
    DRY( 19,171)   DRY( 19,172)   DRY( 19,173)   DRY( 19,174)   DRY( 19,175)   
    DRY( 19,176)   DRY( 19,177)   DRY( 19,178)   DRY( 19,179)   DRY( 19,180)   
    DRY( 19,181)   DRY( 19,182)   DRY( 19,183)   DRY( 19,184)   DRY( 19,185)   
    DRY( 19,186)   DRY( 19,187)   DRY( 19,188)   DRY( 19,189)   DRY( 19,190)   
    DRY( 19,191)   DRY( 19,192)   DRY( 19,193)   DRY( 19,194)   DRY( 19,195)   
    DRY( 19,196)   DRY( 19,197)   DRY( 19,198)   DRY( 19,199)   DRY( 19,200)   
    DRY( 19,201)   DRY( 19,202)   DRY( 19,203)   DRY( 19,204)   DRY( 19,205)   
    DRY( 19,206)   DRY( 19,207)   DRY( 19,208)   DRY( 19,209)   DRY( 19,210)   
    DRY( 19,211)   DRY( 19,212)   DRY( 19,213)   DRY( 19,214)   DRY( 19,215)   
    DRY( 19,216)   DRY( 19,217)   DRY( 19,218)   DRY( 19,219)   DRY( 19,220)   
    DRY( 20,  1)   DRY( 20,  2)   DRY( 20,  3)   DRY( 20,  4)   DRY( 20,  5)   
    DRY( 20,  6)   DRY( 20,  7)   DRY( 20,  8)   DRY( 20,  9)   DRY( 20, 10)   
    DRY( 20, 11)   DRY( 20, 12)   DRY( 20, 13)   DRY( 20, 14)   DRY( 20, 15)   
    DRY( 20, 16)   DRY( 20, 17)   DRY( 20, 18)   DRY( 20, 19)   DRY( 20, 20)   
    DRY( 20, 21)   DRY( 20, 22)   DRY( 20, 23)   DRY( 20, 24)   DRY( 20, 25)   
    DRY( 20, 26)   DRY( 20, 27)   DRY( 20, 28)   DRY( 20, 29)   DRY( 20, 30)   
    DRY( 20, 31)   DRY( 20, 32)   DRY( 20, 33)   DRY( 20, 34)   DRY( 20, 35)   
    DRY( 20, 36)   DRY( 20, 37)   DRY( 20, 38)   DRY( 20, 39)   DRY( 20, 40)   
    DRY( 20, 41)   DRY( 20, 42)   DRY( 20, 43)   DRY( 20, 44)   DRY( 20, 45)   
    DRY( 20, 46)   DRY( 20, 47)   DRY( 20, 48)   DRY( 20, 49)   DRY( 20, 50)   
    DRY( 20, 51)   DRY( 20, 52)   DRY( 20, 53)   DRY( 20, 54)   DRY( 20, 55)   
    DRY( 20, 56)   DRY( 20, 57)   DRY( 20, 58)   DRY( 20, 59)   DRY( 20, 60)   
    DRY( 20, 61)   DRY( 20, 62)   DRY( 20, 63)   DRY( 20, 64)   DRY( 20, 65)   
    DRY( 20, 66)   DRY( 20, 67)   DRY( 20, 68)   DRY( 20, 69)   DRY( 20, 70)   
    DRY( 20, 71)   DRY( 20, 72)   DRY( 20, 73)   DRY( 20, 74)   DRY( 20, 75)   
    DRY( 20, 76)   DRY( 20, 77)   DRY( 20, 78)   DRY( 20, 79)   DRY( 20, 80)   
    DRY( 20, 81)   DRY( 20, 82)   DRY( 20, 83)   DRY( 20, 84)   DRY( 20, 85)   
    DRY( 20, 86)   DRY( 20, 87)   DRY( 20, 88)   DRY( 20, 89)   DRY( 20, 90)   
    DRY( 20, 91)   DRY( 20, 92)   DRY( 20, 93)   DRY( 20, 94)   DRY( 20, 95)   
    DRY( 20, 96)   DRY( 20, 97)   DRY( 20, 98)   DRY( 20, 99)   DRY( 20,100)   
    DRY( 20,101)   DRY( 20,102)   DRY( 20,103)   DRY( 20,104)   DRY( 20,105)   
    DRY( 20,106)   DRY( 20,107)   DRY( 20,108)   DRY( 20,109)   DRY( 20,110)   
    DRY( 20,111)   DRY( 20,112)   DRY( 20,113)   DRY( 20,114)   DRY( 20,115)   
    DRY( 20,116)   DRY( 20,117)   DRY( 20,118)   DRY( 20,119)   DRY( 20,120)   
    DRY( 20,121)   DRY( 20,122)   DRY( 20,123)   DRY( 20,124)   DRY( 20,125)   
    DRY( 20,126)   DRY( 20,127)   DRY( 20,128)   DRY( 20,129)   DRY( 20,130)   
    DRY( 20,131)   DRY( 20,132)   DRY( 20,133)   DRY( 20,134)   DRY( 20,135)   
    DRY( 20,136)   DRY( 20,137)   DRY( 20,138)   DRY( 20,139)   DRY( 20,140)   
    DRY( 20,141)   DRY( 20,142)   DRY( 20,143)   DRY( 20,144)   DRY( 20,145)   
    DRY( 20,146)   DRY( 20,147)   DRY( 20,148)   DRY( 20,149)   DRY( 20,150)   
    DRY( 20,151)   DRY( 20,152)   DRY( 20,153)   DRY( 20,154)   DRY( 20,155)   
    DRY( 20,156)   DRY( 20,157)   DRY( 20,158)   DRY( 20,159)   DRY( 20,160)   
    DRY( 20,161)   DRY( 20,162)   DRY( 20,163)   DRY( 20,164)   DRY( 20,165)   
    DRY( 20,166)   DRY( 20,167)   DRY( 20,168)   DRY( 20,169)   DRY( 20,170)   
    DRY( 20,171)   DRY( 20,172)   DRY( 20,173)   DRY( 20,174)   DRY( 20,175)   
    DRY( 20,176)   DRY( 20,177)   DRY( 20,178)   DRY( 20,179)   DRY( 20,180)   
    DRY( 20,181)   DRY( 20,182)   DRY( 20,183)   DRY( 20,184)   DRY( 20,185)   
    DRY( 20,186)   DRY( 20,187)   DRY( 20,188)   DRY( 20,189)   DRY( 20,190)   
    DRY( 20,191)   DRY( 20,192)   DRY( 20,193)   DRY( 20,194)   DRY( 20,195)   
    DRY( 20,196)   DRY( 20,197)   DRY( 20,198)   DRY( 20,199)   DRY( 20,200)   
    DRY( 20,201)   DRY( 20,202)   DRY( 20,203)   DRY( 20,204)   DRY( 20,205)   
    DRY( 20,206)   DRY( 20,207)   DRY( 20,208)   DRY( 20,209)   DRY( 20,210)   
    DRY( 20,211)   DRY( 20,212)   DRY( 20,213)   DRY( 20,214)   DRY( 20,215)   
    DRY( 20,216)   DRY( 20,217)   DRY( 20,218)   DRY( 20,219)   DRY( 20,220)   

 CELL CONVERSIONS FOR ITER.=  2  LAYER=  6  STEP=  1  PERIOD=   1   (ROW,COL)
    DRY(  6,  1)   DRY(  6,  2)   DRY(  6,218)   DRY(  6,219)   DRY(  6,220)   
    DRY(  7,  1)   DRY(  7,  2)   DRY(  7,  3)   DRY(  7,  4)   DRY(  7,  5)   
    DRY(  7,  6)   DRY(  7,  7)   DRY(  7,  8)   DRY(  7,  9)   DRY(  7, 10)   
    DRY(  7, 11)   DRY(  7, 12)   DRY(  7, 13)   DRY(  7, 14)   DRY(  7, 43)   
    DRY(  7, 44)   DRY(  7, 45)   DRY(  7, 46)   DRY(  7, 47)   DRY(  7, 48)   
    DRY(  7, 49)   DRY(  7, 50)   DRY(  7, 51)   DRY(  7, 52)   DRY(  7, 53)   
    DRY(  7, 54)   DRY(  7, 55)   DRY(  7, 56)   DRY(  7, 57)   DRY(  7, 58)   
    DRY(  7, 59)   DRY(  7, 60)   DRY(  7, 61)   DRY(  7, 62)   DRY(  7, 63)   
    DRY(  7, 64)   DRY(  7, 65)   DRY(  7, 66)   DRY(  7, 67)   DRY(  7, 68)   
    DRY(  7, 69)   DRY(  7, 70)   DRY(  7, 71)   DRY(  7, 72)   DRY(  7, 73)   
    DRY(  7, 74)   DRY(  7, 75)   DRY(  7, 76)   DRY(  7, 77)   DRY(  7, 78)   
    DRY(  7, 79)   DRY(  7, 80)   DRY(  7, 81)   DRY(  7, 82)   DRY(  7, 83)   
    DRY(  7, 84)   DRY(  7, 85)   DRY(  7, 86)   DRY(  7, 87)   DRY(  7, 88)   
    DRY(  7, 89)   DRY(  7, 90)   DRY(  7, 91)   DRY(  7, 92)   DRY(  7, 93)   
    DRY(  7, 94)   DRY(  7, 95)   DRY(  7, 96)   DRY(  7, 97)   DRY(  7, 98)   
    DRY(  7, 99)   DRY(  7,100)   DRY(  7,101)   DRY(  7,102)   DRY(  7,103)   
    DRY(  7,104)   DRY(  7,105)   DRY(  7,106)   DRY(  7,107)   DRY(  7,108)   
    DRY(  7,109)   DRY(  7,110)   DRY(  7,111)   DRY(  7,112)   DRY(  7,113)   
    DRY(  7,114)   DRY(  7,115)   DRY(  7,116)   DRY(  7,117)   DRY(  7,118)   
    DRY(  7,119)   DRY(  7,120)   DRY(  7,121)   DRY(  7,122)   DRY(  7,126)   
    DRY(  7,127)   DRY(  7,128)   DRY(  7,129)   DRY(  7,130)   DRY(  7,131)   
    DRY(  7,132)   DRY(  7,133)   DRY(  7,134)   DRY(  7,135)   DRY(  7,136)   
    DRY(  7,137)   DRY(  7,138)   DRY(  7,139)   DRY(  7,140)   DRY(  7,141)   
    DRY(  7,142)   DRY(  7,143)   DRY(  7,150)   DRY(  7,151)   DRY(  7,152)   
    DRY(  7,153)   DRY(  7,154)   DRY(  7,155)   DRY(  7,156)   DRY(  7,157)   
    DRY(  7,158)   DRY(  7,159)   DRY(  7,160)   DRY(  7,161)   DRY(  7,162)   
    DRY(  7,163)   DRY(  7,164)   DRY(  7,186)   DRY(  7,187)   DRY(  7,188)   
    DRY(  7,189)   DRY(  7,190)   DRY(  7,191)   DRY(  7,192)   DRY(  7,193)   
    DRY(  7,194)   DRY(  7,195)   DRY(  7,196)   DRY(  7,197)   DRY(  7,198)   
    DRY(  7,217)   DRY(  7,218)   DRY(  7,219)   DRY(  7,220)   DRY(  8,  1)   
    DRY(  8,  2)   DRY(  8,  3)   DRY(  8,  4)   DRY(  8,  5)   DRY(  8,  6)   
    DRY(  8,  7)   DRY(  8,  8)   DRY(  8,  9)   DRY(  8, 10)   DRY(  8, 11)   
    DRY(  8, 12)   DRY(  8, 13)   DRY(  8, 14)   DRY(  8, 15)   DRY(  8, 16)   
    DRY(  8, 17)   DRY(  8, 18)   DRY(  8, 19)   DRY(  8, 20)   DRY(  8, 21)   
    DRY(  8, 22)   DRY(  8, 23)   DRY(  8, 24)   DRY(  8, 25)   DRY(  8, 26)   
    DRY(  8, 27)   DRY(  8, 28)   DRY(  8, 29)   DRY(  8, 30)   DRY(  8, 31)   
    DRY(  8, 32)   DRY(  8, 33)   DRY(  8, 34)   DRY(  8, 35)   DRY(  8, 36)   
    DRY(  8, 37)   DRY(  8, 38)   DRY(  8, 39)   DRY(  8, 40)   DRY(  8, 41)   
    DRY(  8, 42)   DRY(  8, 43)   DRY(  8, 44)   DRY(  8, 45)   DRY(  8, 46)   
    DRY(  8, 47)   DRY(  8, 48)   DRY(  8, 49)   DRY(  8, 50)   DRY(  8, 51)   
    DRY(  8, 52)   DRY(  8, 53)   DRY(  8, 54)   DRY(  8, 55)   DRY(  8, 56)   
    DRY(  8, 57)   DRY(  8, 58)   DRY(  8, 59)   DRY(  8, 60)   DRY(  8, 61)   
    DRY(  8, 62)   DRY(  8, 63)   DRY(  8, 64)   DRY(  8, 65)   DRY(  8, 66)   
    DRY(  8, 67)   DRY(  8, 68)   DRY(  8, 69)   DRY(  8, 70)   DRY(  8, 71)   
    DRY(  8, 72)   DRY(  8, 73)   DRY(  8, 74)   DRY(  8, 75)   DRY(  8, 76)   
    DRY(  8, 77)   DRY(  8, 78)   DRY(  8, 79)   DRY(  8, 80)   DRY(  8, 81)   
    DRY(  8, 82)   DRY(  8, 83)   DRY(  8, 84)   DRY(  8, 85)   DRY(  8, 86)   
    DRY(  8, 87)   DRY(  8, 88)   DRY(  8, 89)   DRY(  8, 90)   DRY(  8, 91)   
    DRY(  8, 92)   DRY(  8, 93)   DRY(  8, 94)   DRY(  8, 95)   DRY(  8, 96)   
    DRY(  8, 97)   DRY(  8, 98)   DRY(  8, 99)   DRY(  8,100)   DRY(  8,101)   
    DRY(  8,102)   DRY(  8,103)   DRY(  8,104)   DRY(  8,105)   DRY(  8,106)   
    DRY(  8,107)   DRY(  8,108)   DRY(  8,109)   DRY(  8,110)   DRY(  8,111)   
    DRY(  8,112)   DRY(  8,113)   DRY(  8,114)   DRY(  8,115)   DRY(  8,116)   
    DRY(  8,117)   DRY(  8,118)   DRY(  8,119)   DRY(  8,120)   DRY(  8,121)   
    DRY(  8,122)   DRY(  8,123)   DRY(  8,124)   DRY(  8,125)   DRY(  8,126)   
    DRY(  8,127)   DRY(  8,128)   DRY(  8,129)   DRY(  8,130)   DRY(  8,131)   
    DRY(  8,132)   DRY(  8,133)   DRY(  8,134)   DRY(  8,135)   DRY(  8,136)   
    DRY(  8,137)   DRY(  8,138)   DRY(  8,139)   DRY(  8,140)   DRY(  8,141)   
    DRY(  8,142)   DRY(  8,143)   DRY(  8,144)   DRY(  8,145)   DRY(  8,146)   
    DRY(  8,147)   DRY(  8,148)   DRY(  8,149)   DRY(  8,150)   DRY(  8,151)   
    DRY(  8,152)   DRY(  8,153)   DRY(  8,154)   DRY(  8,155)   DRY(  8,156)   
    DRY(  8,157)   DRY(  8,158)   DRY(  8,159)   DRY(  8,160)   DRY(  8,161)   
    DRY(  8,162)   DRY(  8,163)   DRY(  8,164)   DRY(  8,165)   DRY(  8,166)   
    DRY(  8,167)   DRY(  8,168)   DRY(  8,169)   DRY(  8,170)   DRY(  8,171)   
    DRY(  8,172)   DRY(  8,173)   DRY(  8,174)   DRY(  8,175)   DRY(  8,176)   
    DRY(  8,177)   DRY(  8,178)   DRY(  8,179)   DRY(  8,180)   DRY(  8,181)   
    DRY(  8,182)   DRY(  8,183)   DRY(  8,184)   DRY(  8,185)   DRY(  8,186)   
    DRY(  8,187)   DRY(  8,188)   DRY(  8,189)   DRY(  8,190)   DRY(  8,191)   
    DRY(  8,192)   DRY(  8,193)   DRY(  8,194)   DRY(  8,195)   DRY(  8,196)   
    DRY(  8,197)   DRY(  8,198)   DRY(  8,199)   DRY(  8,200)   DRY(  8,201)   
    DRY(  8,202)   DRY(  8,203)   DRY(  8,204)   DRY(  8,205)   DRY(  8,206)   
    DRY(  8,207)   DRY(  8,208)   DRY(  8,209)   DRY(  8,217)   DRY(  8,218)   
    DRY(  8,219)   DRY(  8,220)   DRY(  9,  1)   DRY(  9,  2)   DRY(  9,  3)   
    DRY(  9,  4)   DRY(  9,  5)   DRY(  9,  6)   DRY(  9,  7)   DRY(  9,  8)   
    DRY(  9,  9)   DRY(  9, 10)   DRY(  9, 11)   DRY(  9, 12)   DRY(  9, 13)   
    DRY(  9, 14)   DRY(  9, 15)   DRY(  9, 16)   DRY(  9, 17)   DRY(  9, 18)   
    DRY(  9, 19)   DRY(  9, 20)   DRY(  9, 21)   DRY(  9, 22)   DRY(  9, 23)   
    DRY(  9, 24)   DRY(  9, 25)   DRY(  9, 26)   DRY(  9, 27)   DRY(  9, 28)   
    DRY(  9, 29)   DRY(  9, 30)   DRY(  9, 31)   DRY(  9, 32)   DRY(  9, 33)   
    DRY(  9, 34)   DRY(  9, 35)   DRY(  9, 36)   DRY(  9, 37)   DRY(  9, 38)   
    DRY(  9, 39)   DRY(  9, 40)   DRY(  9, 41)   DRY(  9, 42)   DRY(  9, 43)   
    DRY(  9, 44)   DRY(  9, 45)   DRY(  9, 46)   DRY(  9, 47)   DRY(  9, 48)   
    DRY(  9, 49)   DRY(  9, 50)   DRY(  9, 51)   DRY(  9, 52)   DRY(  9, 53)   
    DRY(  9, 54)   DRY(  9, 55)   DRY(  9, 56)   DRY(  9, 57)   DRY(  9, 58)   
    DRY(  9, 59)   DRY(  9, 60)   DRY(  9, 61)   DRY(  9, 62)   DRY(  9, 63)   
    DRY(  9, 64)   DRY(  9, 65)   DRY(  9, 66)   DRY(  9, 67)   DRY(  9, 68)   
    DRY(  9, 69)   DRY(  9, 70)   DRY(  9, 71)   DRY(  9, 72)   DRY(  9, 73)   
    DRY(  9, 74)   DRY(  9, 75)   DRY(  9, 76)   DRY(  9, 77)   DRY(  9, 78)   
    DRY(  9, 79)   DRY(  9, 80)   DRY(  9, 81)   DRY(  9, 82)   DRY(  9, 83)   
    DRY(  9, 84)   DRY(  9, 85)   DRY(  9, 86)   DRY(  9, 87)   DRY(  9, 88)   
    DRY(  9, 89)   DRY(  9, 90)   DRY(  9, 91)   DRY(  9, 92)   DRY(  9, 93)   
    DRY(  9, 94)   DRY(  9, 95)   DRY(  9, 96)   DRY(  9, 97)   DRY(  9, 98)   
    DRY(  9, 99)   DRY(  9,100)   DRY(  9,101)   DRY(  9,102)   DRY(  9,103)   
    DRY(  9,104)   DRY(  9,105)   DRY(  9,106)   DRY(  9,107)   DRY(  9,108)   
    DRY(  9,109)   DRY(  9,110)   DRY(  9,111)   DRY(  9,112)   DRY(  9,113)   
    DRY(  9,114)   DRY(  9,115)   DRY(  9,116)   DRY(  9,117)   DRY(  9,118)   
    DRY(  9,119)   DRY(  9,120)   DRY(  9,121)   DRY(  9,122)   DRY(  9,123)   
    DRY(  9,124)   DRY(  9,125)   DRY(  9,126)   DRY(  9,127)   DRY(  9,128)   
    DRY(  9,129)   DRY(  9,130)   DRY(  9,131)   DRY(  9,132)   DRY(  9,133)   
    DRY(  9,134)   DRY(  9,135)   DRY(  9,136)   DRY(  9,137)   DRY(  9,138)   
    DRY(  9,139)   DRY(  9,140)   DRY(  9,141)   DRY(  9,142)   DRY(  9,143)   
    DRY(  9,144)   DRY(  9,145)   DRY(  9,146)   DRY(  9,147)   DRY(  9,148)   
    DRY(  9,149)   DRY(  9,150)   DRY(  9,151)   DRY(  9,152)   DRY(  9,153)   
    DRY(  9,154)   DRY(  9,155)   DRY(  9,156)   DRY(  9,157)   DRY(  9,158)   
    DRY(  9,159)   DRY(  9,160)   DRY(  9,161)   DRY(  9,162)   DRY(  9,163)   
    DRY(  9,164)   DRY(  9,165)   DRY(  9,166)   DRY(  9,167)   DRY(  9,168)   
    DRY(  9,169)   DRY(  9,170)   DRY(  9,171)   DRY(  9,172)   DRY(  9,173)   
    DRY(  9,174)   DRY(  9,175)   DRY(  9,176)   DRY(  9,177)   DRY(  9,178)   
    DRY(  9,179)   DRY(  9,180)   DRY(  9,181)   DRY(  9,182)   DRY(  9,183)   
    DRY(  9,184)   DRY(  9,185)   DRY(  9,186)   DRY(  9,187)   DRY(  9,188)   
    DRY(  9,189)   DRY(  9,190)   DRY(  9,191)   DRY(  9,192)   DRY(  9,193)   
    DRY(  9,194)   DRY(  9,195)   DRY(  9,196)   DRY(  9,197)   DRY(  9,198)   
    DRY(  9,199)   DRY(  9,200)   DRY(  9,201)   DRY(  9,202)   DRY(  9,203)   
    DRY(  9,204)   DRY(  9,205)   DRY(  9,206)   DRY(  9,207)   DRY(  9,208)   
    DRY(  9,209)   DRY(  9,210)   DRY(  9,211)   DRY(  9,218)   DRY(  9,219)   
    DRY(  9,220)   DRY( 10,  1)   DRY( 10,  2)   DRY( 10,  3)   DRY( 10,  4)   
    DRY( 10,  5)   DRY( 10,  6)   DRY( 10,  7)   DRY( 10,  8)   DRY( 10,  9)   
    DRY( 10, 10)   DRY( 10, 11)   DRY( 10, 12)   DRY( 10, 13)   DRY( 10, 14)   
    DRY( 10, 15)   DRY( 10, 16)   DRY( 10, 17)   DRY( 10, 18)   DRY( 10, 19)   
    DRY( 10, 20)   DRY( 10, 21)   DRY( 10, 22)   DRY( 10, 23)   DRY( 10, 24)   
    DRY( 10, 25)   DRY( 10, 26)   DRY( 10, 27)   DRY( 10, 28)   DRY( 10, 29)   
    DRY( 10, 30)   DRY( 10, 31)   DRY( 10, 32)   DRY( 10, 33)   DRY( 10, 34)   
    DRY( 10, 35)   DRY( 10, 36)   DRY( 10, 37)   DRY( 10, 38)   DRY( 10, 39)   
    DRY( 10, 40)   DRY( 10, 41)   DRY( 10, 42)   DRY( 10, 43)   DRY( 10, 44)   
    DRY( 10, 45)   DRY( 10, 46)   DRY( 10, 47)   DRY( 10, 48)   DRY( 10, 49)   
    DRY( 10, 50)   DRY( 10, 51)   DRY( 10, 52)   DRY( 10, 53)   DRY( 10, 54)   
    DRY( 10, 55)   DRY( 10, 56)   DRY( 10, 57)   DRY( 10, 58)   DRY( 10, 59)   
    DRY( 10, 60)   DRY( 10, 61)   DRY( 10, 62)   DRY( 10, 63)   DRY( 10, 64)   
    DRY( 10, 65)   DRY( 10, 66)   DRY( 10, 67)   DRY( 10, 68)   DRY( 10, 69)   
    DRY( 10, 70)   DRY( 10, 71)   DRY( 10, 72)   DRY( 10, 73)   DRY( 10, 74)   
    DRY( 10, 75)   DRY( 10, 76)   DRY( 10, 77)   DRY( 10, 78)   DRY( 10, 79)   
    DRY( 10, 80)   DRY( 10, 81)   DRY( 10, 82)   DRY( 10, 83)   DRY( 10, 84)   
    DRY( 10, 85)   DRY( 10, 86)   DRY( 10, 87)   DRY( 10, 88)   DRY( 10, 89)   
    DRY( 10, 90)   DRY( 10, 91)   DRY( 10, 92)   DRY( 10, 93)   DRY( 10, 94)   
    DRY( 10, 95)   DRY( 10, 96)   DRY( 10, 97)   DRY( 10, 98)   DRY( 10, 99)   
    DRY( 10,100)   DRY( 10,101)   DRY( 10,102)   DRY( 10,103)   DRY( 10,104)   
    DRY( 10,105)   DRY( 10,106)   DRY( 10,107)   DRY( 10,108)   DRY( 10,109)   
    DRY( 10,110)   DRY( 10,111)   DRY( 10,112)   DRY( 10,113)   DRY( 10,114)   
    DRY( 10,115)   DRY( 10,116)   DRY( 10,117)   DRY( 10,118)   DRY( 10,119)   
    DRY( 10,120)   DRY( 10,121)   DRY( 10,122)   DRY( 10,123)   DRY( 10,124)   
    DRY( 10,125)   DRY( 10,126)   DRY( 10,127)   DRY( 10,128)   DRY( 10,129)   
    DRY( 10,130)   DRY( 10,131)   DRY( 10,132)   DRY( 10,133)   DRY( 10,134)   
    DRY( 10,135)   DRY( 10,136)   DRY( 10,137)   DRY( 10,138)   DRY( 10,139)   
    DRY( 10,140)   DRY( 10,141)   DRY( 10,142)   DRY( 10,143)   DRY( 10,144)   
    DRY( 10,145)   DRY( 10,146)   DRY( 10,147)   DRY( 10,148)   DRY( 10,149)   
    DRY( 10,150)   DRY( 10,151)   DRY( 10,152)   DRY( 10,153)   DRY( 10,154)   
    DRY( 10,155)   DRY( 10,156)   DRY( 10,157)   DRY( 10,158)   DRY( 10,159)   
    DRY( 10,160)   DRY( 10,161)   DRY( 10,162)   DRY( 10,163)   DRY( 10,164)   
    DRY( 10,165)   DRY( 10,166)   DRY( 10,167)   DRY( 10,168)   DRY( 10,169)   
    DRY( 10,170)   DRY( 10,171)   DRY( 10,172)   DRY( 10,173)   DRY( 10,174)   
    DRY( 10,175)   DRY( 10,176)   DRY( 10,177)   DRY( 10,178)   DRY( 10,179)   
    DRY( 10,180)   DRY( 10,181)   DRY( 10,182)   DRY( 10,183)   DRY( 10,184)   
    DRY( 10,185)   DRY( 10,186)   DRY( 10,187)   DRY( 10,188)   DRY( 10,189)   
    DRY( 10,190)   DRY( 10,191)   DRY( 10,192)   DRY( 10,193)   DRY( 10,194)   
    DRY( 10,195)   DRY( 10,196)   DRY( 10,197)   DRY( 10,198)   DRY( 10,199)   
    DRY( 10,200)   DRY( 10,201)   DRY( 10,202)   DRY( 10,203)   DRY( 10,204)   
    DRY( 10,205)   DRY( 10,206)   DRY( 10,207)   DRY( 10,208)   DRY( 10,209)   
    DRY( 10,210)   DRY( 10,211)   DRY( 10,212)   DRY( 10,218)   DRY( 10,219)   
    DRY( 10,220)   DRY( 11,  1)   DRY( 11,  2)   DRY( 11,  3)   DRY( 11,  4)   
    DRY( 11,  5)   DRY( 11,  6)   DRY( 11,  7)   DRY( 11,  8)   DRY( 11,  9)   
    DRY( 11, 10)   DRY( 11, 11)   DRY( 11, 12)   DRY( 11, 13)   DRY( 11, 14)   
    DRY( 11, 15)   DRY( 11, 16)   DRY( 11, 17)   DRY( 11, 18)   DRY( 11, 19)   
    DRY( 11, 20)   DRY( 11, 21)   DRY( 11, 22)   DRY( 11, 23)   DRY( 11, 24)   
    DRY( 11, 25)   DRY( 11, 26)   DRY( 11, 27)   DRY( 11, 28)   DRY( 11, 29)   
    DRY( 11, 30)   DRY( 11, 31)   DRY( 11, 32)   DRY( 11, 33)   DRY( 11, 34)   
    DRY( 11, 35)   DRY( 11, 36)   DRY( 11, 37)   DRY( 11, 38)   DRY( 11, 39)   
    DRY( 11, 40)   DRY( 11, 41)   DRY( 11, 42)   DRY( 11, 43)   DRY( 11, 44)   
    DRY( 11, 45)   DRY( 11, 46)   DRY( 11, 47)   DRY( 11, 48)   DRY( 11, 49)   
    DRY( 11, 50)   DRY( 11, 51)   DRY( 11, 52)   DRY( 11, 53)   DRY( 11, 54)   
    DRY( 11, 55)   DRY( 11, 56)   DRY( 11, 57)   DRY( 11, 58)   DRY( 11, 59)   
    DRY( 11, 60)   DRY( 11, 61)   DRY( 11, 62)   DRY( 11, 63)   DRY( 11, 64)   
    DRY( 11, 65)   DRY( 11, 66)   DRY( 11, 67)   DRY( 11, 68)   DRY( 11, 69)   
    DRY( 11, 70)   DRY( 11, 71)   DRY( 11, 72)   DRY( 11, 73)   DRY( 11, 74)   
    DRY( 11, 75)   DRY( 11, 76)   DRY( 11, 77)   DRY( 11, 78)   DRY( 11, 79)   
    DRY( 11, 80)   DRY( 11, 81)   DRY( 11, 82)   DRY( 11, 83)   DRY( 11, 84)   
    DRY( 11, 85)   DRY( 11, 86)   DRY( 11, 87)   DRY( 11, 88)   DRY( 11, 89)   
    DRY( 11, 90)   DRY( 11, 91)   DRY( 11, 92)   DRY( 11, 93)   DRY( 11, 94)   
    DRY( 11, 95)   DRY( 11, 96)   DRY( 11, 97)   DRY( 11, 98)   DRY( 11, 99)   
    DRY( 11,100)   DRY( 11,101)   DRY( 11,102)   DRY( 11,103)   DRY( 11,104)   
    DRY( 11,105)   DRY( 11,106)   DRY( 11,107)   DRY( 11,108)   DRY( 11,109)   
    DRY( 11,110)   DRY( 11,111)   DRY( 11,112)   DRY( 11,113)   DRY( 11,114)   
    DRY( 11,115)   DRY( 11,116)   DRY( 11,117)   DRY( 11,118)   DRY( 11,119)   
    DRY( 11,120)   DRY( 11,121)   DRY( 11,122)   DRY( 11,123)   DRY( 11,124)   
    DRY( 11,125)   DRY( 11,126)   DRY( 11,127)   DRY( 11,128)   DRY( 11,129)   
    DRY( 11,130)   DRY( 11,131)   DRY( 11,132)   DRY( 11,133)   DRY( 11,134)   
    DRY( 11,135)   DRY( 11,136)   DRY( 11,137)   DRY( 11,138)   DRY( 11,139)   
    DRY( 11,140)   DRY( 11,141)   DRY( 11,142)   DRY( 11,143)   DRY( 11,144)   
    DRY( 11,145)   DRY( 11,146)   DRY( 11,147)   DRY( 11,148)   DRY( 11,149)   
    DRY( 11,150)   DRY( 11,151)   DRY( 11,152)   DRY( 11,153)   DRY( 11,154)   
    DRY( 11,155)   DRY( 11,156)   DRY( 11,157)   DRY( 11,158)   DRY( 11,159)   
    DRY( 11,160)   DRY( 11,161)   DRY( 11,162)   DRY( 11,163)   DRY( 11,164)   
    DRY( 11,165)   DRY( 11,166)   DRY( 11,167)   DRY( 11,168)   DRY( 11,169)   
    DRY( 11,170)   DRY( 11,171)   DRY( 11,172)   DRY( 11,173)   DRY( 11,174)   
    DRY( 11,175)   DRY( 11,176)   DRY( 11,177)   DRY( 11,178)   DRY( 11,179)   
    DRY( 11,180)   DRY( 11,181)   DRY( 11,182)   DRY( 11,183)   DRY( 11,184)   
    DRY( 11,185)   DRY( 11,186)   DRY( 11,187)   DRY( 11,188)   DRY( 11,189)   
    DRY( 11,190)   DRY( 11,191)   DRY( 11,192)   DRY( 11,193)   DRY( 11,194)   
    DRY( 11,195)   DRY( 11,196)   DRY( 11,197)   DRY( 11,198)   DRY( 11,199)   
    DRY( 11,200)   DRY( 11,201)   DRY( 11,202)   DRY( 11,203)   DRY( 11,204)   
    DRY( 11,205)   DRY( 11,206)   DRY( 11,207)   DRY( 11,208)   DRY( 11,209)   
    DRY( 11,210)   DRY( 11,211)   DRY( 11,212)   DRY( 11,213)   DRY( 11,219)   
    DRY( 11,220)   DRY( 12,  1)   DRY( 12,  2)   DRY( 12,  3)   DRY( 12,  4)   
    DRY( 12,  5)   DRY( 12,  6)   DRY( 12,  7)   DRY( 12,  8)   DRY( 12,  9)   
    DRY( 12, 10)   DRY( 12, 11)   DRY( 12, 12)   DRY( 12, 13)   DRY( 12, 14)   
    DRY( 12, 15)   DRY( 12, 16)   DRY( 12, 17)   DRY( 12, 18)   DRY( 12, 19)   
    DRY( 12, 20)   DRY( 12, 21)   DRY( 12, 22)   DRY( 12, 23)   DRY( 12, 24)   
    DRY( 12, 25)   DRY( 12, 26)   DRY( 12, 27)   DRY( 12, 28)   DRY( 12, 29)   
    DRY( 12, 30)   DRY( 12, 31)   DRY( 12, 32)   DRY( 12, 33)   DRY( 12, 34)   
    DRY( 12, 35)   DRY( 12, 36)   DRY( 12, 37)   DRY( 12, 38)   DRY( 12, 39)   
    DRY( 12, 40)   DRY( 12, 41)   DRY( 12, 42)   DRY( 12, 43)   DRY( 12, 44)   
    DRY( 12, 45)   DRY( 12, 46)   DRY( 12, 47)   DRY( 12, 48)   DRY( 12, 49)   
    DRY( 12, 50)   DRY( 12, 51)   DRY( 12, 52)   DRY( 12, 53)   DRY( 12, 54)   
    DRY( 12, 55)   DRY( 12, 56)   DRY( 12, 57)   DRY( 12, 58)   DRY( 12, 59)   
    DRY( 12, 60)   DRY( 12, 61)   DRY( 12, 62)   DRY( 12, 63)   DRY( 12, 64)   
    DRY( 12, 65)   DRY( 12, 66)   DRY( 12, 67)   DRY( 12, 68)   DRY( 12, 69)   
    DRY( 12, 70)   DRY( 12, 71)   DRY( 12, 72)   DRY( 12, 73)   DRY( 12, 74)   
    DRY( 12, 75)   DRY( 12, 76)   DRY( 12, 77)   DRY( 12, 78)   DRY( 12, 79)   
    DRY( 12, 80)   DRY( 12, 81)   DRY( 12, 82)   DRY( 12, 83)   DRY( 12, 84)   
    DRY( 12, 85)   DRY( 12, 86)   DRY( 12, 87)   DRY( 12, 88)   DRY( 12, 89)   
    DRY( 12, 90)   DRY( 12, 91)   DRY( 12, 92)   DRY( 12, 93)   DRY( 12, 94)   
    DRY( 12, 95)   DRY( 12, 96)   DRY( 12, 97)   DRY( 12, 98)   DRY( 12, 99)   
    DRY( 12,100)   DRY( 12,101)   DRY( 12,102)   DRY( 12,103)   DRY( 12,104)   
    DRY( 12,105)   DRY( 12,106)   DRY( 12,107)   DRY( 12,108)   DRY( 12,109)   
    DRY( 12,110)   DRY( 12,111)   DRY( 12,112)   DRY( 12,113)   DRY( 12,114)   
    DRY( 12,115)   DRY( 12,116)   DRY( 12,117)   DRY( 12,118)   DRY( 12,119)   
    DRY( 12,120)   DRY( 12,121)   DRY( 12,122)   DRY( 12,123)   DRY( 12,124)   
    DRY( 12,125)   DRY( 12,126)   DRY( 12,127)   DRY( 12,128)   DRY( 12,129)   
    DRY( 12,130)   DRY( 12,131)   DRY( 12,132)   DRY( 12,133)   DRY( 12,134)   
    DRY( 12,135)   DRY( 12,136)   DRY( 12,137)   DRY( 12,138)   DRY( 12,139)   
    DRY( 12,140)   DRY( 12,141)   DRY( 12,142)   DRY( 12,143)   DRY( 12,144)   
    DRY( 12,145)   DRY( 12,146)   DRY( 12,147)   DRY( 12,148)   DRY( 12,149)   
    DRY( 12,150)   DRY( 12,151)   DRY( 12,152)   DRY( 12,153)   DRY( 12,154)   
    DRY( 12,155)   DRY( 12,156)   DRY( 12,157)   DRY( 12,158)   DRY( 12,159)   
    DRY( 12,160)   DRY( 12,161)   DRY( 12,162)   DRY( 12,163)   DRY( 12,164)   
    DRY( 12,165)   DRY( 12,166)   DRY( 12,167)   DRY( 12,168)   DRY( 12,169)   
    DRY( 12,170)   DRY( 12,171)   DRY( 12,172)   DRY( 12,173)   DRY( 12,174)   
    DRY( 12,175)   DRY( 12,176)   DRY( 12,177)   DRY( 12,178)   DRY( 12,179)   
    DRY( 12,180)   DRY( 12,181)   DRY( 12,182)   DRY( 12,183)   DRY( 12,184)   
    DRY( 12,185)   DRY( 12,186)   DRY( 12,187)   DRY( 12,188)   DRY( 12,189)   
    DRY( 12,190)   DRY( 12,191)   DRY( 12,192)   DRY( 12,193)   DRY( 12,194)   
    DRY( 12,195)   DRY( 12,196)   DRY( 12,197)   DRY( 12,198)   DRY( 12,199)   
    DRY( 12,200)   DRY( 12,201)   DRY( 12,202)   DRY( 12,203)   DRY( 12,204)   
    DRY( 12,205)   DRY( 12,206)   DRY( 12,207)   DRY( 12,208)   DRY( 12,209)   
    DRY( 12,210)   DRY( 12,211)   DRY( 12,212)   DRY( 12,213)   DRY( 12,214)   
    DRY( 12,215)   DRY( 12,220)   DRY( 13,  1)   DRY( 13,  2)   DRY( 13,  3)   
    DRY( 13,  4)   DRY( 13,  5)   DRY( 13,  6)   DRY( 13,  7)   DRY( 13,  8)   
    DRY( 13,  9)   DRY( 13, 10)   DRY( 13, 11)   DRY( 13, 12)   DRY( 13, 13)   
    DRY( 13, 14)   DRY( 13, 15)   DRY( 13, 16)   DRY( 13, 17)   DRY( 13, 18)   
    DRY( 13, 19)   DRY( 13, 20)   DRY( 13, 21)   DRY( 13, 22)   DRY( 13, 23)   
    DRY( 13, 24)   DRY( 13, 25)   DRY( 13, 26)   DRY( 13, 27)   DRY( 13, 28)   
    DRY( 13, 29)   DRY( 13, 30)   DRY( 13, 31)   DRY( 13, 32)   DRY( 13, 33)   
    DRY( 13, 34)   DRY( 13, 35)   DRY( 13, 36)   DRY( 13, 37)   DRY( 13, 38)   
    DRY( 13, 39)   DRY( 13, 40)   DRY( 13, 41)   DRY( 13, 42)   DRY( 13, 43)   
    DRY( 13, 44)   DRY( 13, 45)   DRY( 13, 46)   DRY( 13, 47)   DRY( 13, 48)   
    DRY( 13, 49)   DRY( 13, 50)   DRY( 13, 51)   DRY( 13, 52)   DRY( 13, 53)   
    DRY( 13, 54)   DRY( 13, 55)   DRY( 13, 56)   DRY( 13, 57)   DRY( 13, 58)   
    DRY( 13, 59)   DRY( 13, 60)   DRY( 13, 61)   DRY( 13, 62)   DRY( 13, 63)   
    DRY( 13, 64)   DRY( 13, 65)   DRY( 13, 66)   DRY( 13, 67)   DRY( 13, 68)   
    DRY( 13, 69)   DRY( 13, 70)   DRY( 13, 71)   DRY( 13, 72)   DRY( 13, 73)   
    DRY( 13, 74)   DRY( 13, 75)   DRY( 13, 76)   DRY( 13, 77)   DRY( 13, 78)   
    DRY( 13, 79)   DRY( 13, 80)   DRY( 13, 81)   DRY( 13, 82)   DRY( 13, 83)   
    DRY( 13, 84)   DRY( 13, 85)   DRY( 13, 86)   DRY( 13, 87)   DRY( 13, 88)   
    DRY( 13, 89)   DRY( 13, 90)   DRY( 13, 91)   DRY( 13, 92)   DRY( 13, 93)   
    DRY( 13, 94)   DRY( 13, 95)   DRY( 13, 96)   DRY( 13, 97)   DRY( 13, 98)   
    DRY( 13, 99)   DRY( 13,100)   DRY( 13,101)   DRY( 13,102)   DRY( 13,103)   
    DRY( 13,104)   DRY( 13,105)   DRY( 13,106)   DRY( 13,107)   DRY( 13,108)   
    DRY( 13,109)   DRY( 13,110)   DRY( 13,111)   DRY( 13,112)   DRY( 13,113)   
    DRY( 13,114)   DRY( 13,115)   DRY( 13,116)   DRY( 13,117)   DRY( 13,118)   
    DRY( 13,119)   DRY( 13,120)   DRY( 13,121)   DRY( 13,122)   DRY( 13,123)   
    DRY( 13,124)   DRY( 13,125)   DRY( 13,126)   DRY( 13,127)   DRY( 13,128)   
    DRY( 13,129)   DRY( 13,130)   DRY( 13,131)   DRY( 13,132)   DRY( 13,133)   
    DRY( 13,134)   DRY( 13,135)   DRY( 13,136)   DRY( 13,137)   DRY( 13,138)   
    DRY( 13,139)   DRY( 13,140)   DRY( 13,141)   DRY( 13,142)   DRY( 13,143)   
    DRY( 13,144)   DRY( 13,145)   DRY( 13,146)   DRY( 13,147)   DRY( 13,148)   
    DRY( 13,149)   DRY( 13,150)   DRY( 13,151)   DRY( 13,152)   DRY( 13,153)   
    DRY( 13,154)   DRY( 13,155)   DRY( 13,156)   DRY( 13,157)   DRY( 13,158)   
    DRY( 13,159)   DRY( 13,160)   DRY( 13,161)   DRY( 13,162)   DRY( 13,163)   
    DRY( 13,164)   DRY( 13,165)   DRY( 13,166)   DRY( 13,167)   DRY( 13,168)   
    DRY( 13,169)   DRY( 13,170)   DRY( 13,171)   DRY( 13,172)   DRY( 13,173)   
    DRY( 13,174)   DRY( 13,175)   DRY( 13,176)   DRY( 13,177)   DRY( 13,178)   
    DRY( 13,179)   DRY( 13,180)   DRY( 13,181)   DRY( 13,182)   DRY( 13,183)   
    DRY( 13,184)   DRY( 13,185)   DRY( 13,186)   DRY( 13,187)   DRY( 13,188)   
    DRY( 13,189)   DRY( 13,190)   DRY( 13,191)   DRY( 13,192)   DRY( 13,193)   
    DRY( 13,194)   DRY( 13,195)   DRY( 13,196)   DRY( 13,197)   DRY( 13,198)   
    DRY( 13,199)   DRY( 13,200)   DRY( 13,201)   DRY( 13,202)   DRY( 13,203)   
    DRY( 13,204)   DRY( 13,205)   DRY( 13,206)   DRY( 13,207)   DRY( 13,208)   
    DRY( 13,209)   DRY( 13,210)   DRY( 13,211)   DRY( 13,212)   DRY( 13,213)   
    DRY( 13,214)   DRY( 13,215)   DRY( 13,216)   DRY( 14,  1)   DRY( 14,  2)   
    DRY( 14,  3)   DRY( 14,  4)   DRY( 14,  5)   DRY( 14,  6)   DRY( 14,  7)   
    DRY( 14,  8)   DRY( 14,  9)   DRY( 14, 10)   DRY( 14, 11)   DRY( 14, 12)   
    DRY( 14, 13)   DRY( 14, 14)   DRY( 14, 15)   DRY( 14, 16)   DRY( 14, 17)   
    DRY( 14, 18)   DRY( 14, 19)   DRY( 14, 20)   DRY( 14, 21)   DRY( 14, 22)   
    DRY( 14, 23)   DRY( 14, 24)   DRY( 14, 25)   DRY( 14, 26)   DRY( 14, 27)   
    DRY( 14, 28)   DRY( 14, 29)   DRY( 14, 30)   DRY( 14, 31)   DRY( 14, 32)   
    DRY( 14, 33)   DRY( 14, 34)   DRY( 14, 35)   DRY( 14, 36)   DRY( 14, 37)   
    DRY( 14, 38)   DRY( 14, 39)   DRY( 14, 40)   DRY( 14, 41)   DRY( 14, 42)   
    DRY( 14, 43)   DRY( 14, 44)   DRY( 14, 45)   DRY( 14, 46)   DRY( 14, 47)   
    DRY( 14, 48)   DRY( 14, 49)   DRY( 14, 50)   DRY( 14, 51)   DRY( 14, 52)   
    DRY( 14, 53)   DRY( 14, 54)   DRY( 14, 55)   DRY( 14, 56)   DRY( 14, 57)   
    DRY( 14, 58)   DRY( 14, 59)   DRY( 14, 60)   DRY( 14, 61)   DRY( 14, 62)   
    DRY( 14, 63)   DRY( 14, 64)   DRY( 14, 65)   DRY( 14, 66)   DRY( 14, 67)   
    DRY( 14, 68)   DRY( 14, 69)   DRY( 14, 70)   DRY( 14, 71)   DRY( 14, 72)   
    DRY( 14, 73)   DRY( 14, 74)   DRY( 14, 75)   DRY( 14, 76)   DRY( 14, 77)   
    DRY( 14, 78)   DRY( 14, 79)   DRY( 14, 80)   DRY( 14, 81)   DRY( 14, 82)   
    DRY( 14, 83)   DRY( 14, 84)   DRY( 14, 85)   DRY( 14, 86)   DRY( 14, 87)   
    DRY( 14, 88)   DRY( 14, 89)   DRY( 14, 90)   DRY( 14, 91)   DRY( 14, 92)   
    DRY( 14, 93)   DRY( 14, 94)   DRY( 14, 95)   DRY( 14, 96)   DRY( 14, 97)   
    DRY( 14, 98)   DRY( 14, 99)   DRY( 14,100)   DRY( 14,101)   DRY( 14,102)   
    DRY( 14,103)   DRY( 14,104)   DRY( 14,105)   DRY( 14,106)   DRY( 14,107)   
    DRY( 14,108)   DRY( 14,109)   DRY( 14,110)   DRY( 14,111)   DRY( 14,112)   
    DRY( 14,113)   DRY( 14,114)   DRY( 14,115)   DRY( 14,116)   DRY( 14,117)   
    DRY( 14,118)   DRY( 14,119)   DRY( 14,120)   DRY( 14,121)   DRY( 14,122)   
    DRY( 14,123)   DRY( 14,124)   DRY( 14,125)   DRY( 14,126)   DRY( 14,127)   
    DRY( 14,128)   DRY( 14,129)   DRY( 14,130)   DRY( 14,131)   DRY( 14,132)   
    DRY( 14,133)   DRY( 14,134)   DRY( 14,135)   DRY( 14,136)   DRY( 14,137)   
    DRY( 14,138)   DRY( 14,139)   DRY( 14,140)   DRY( 14,141)   DRY( 14,142)   
    DRY( 14,143)   DRY( 14,144)   DRY( 14,145)   DRY( 14,146)   DRY( 14,147)   
    DRY( 14,148)   DRY( 14,149)   DRY( 14,150)   DRY( 14,151)   DRY( 14,152)   
    DRY( 14,153)   DRY( 14,154)   DRY( 14,155)   DRY( 14,156)   DRY( 14,157)   
    DRY( 14,158)   DRY( 14,159)   DRY( 14,160)   DRY( 14,161)   DRY( 14,162)   
    DRY( 14,163)   DRY( 14,164)   DRY( 14,165)   DRY( 14,166)   DRY( 14,167)   
    DRY( 14,168)   DRY( 14,169)   DRY( 14,170)   DRY( 14,171)   DRY( 14,172)   
    DRY( 14,173)   DRY( 14,174)   DRY( 14,175)   DRY( 14,176)   DRY( 14,177)   
    DRY( 14,178)   DRY( 14,179)   DRY( 14,180)   DRY( 14,181)   DRY( 14,182)   
    DRY( 14,183)   DRY( 14,184)   DRY( 14,185)   DRY( 14,186)   DRY( 14,187)   
    DRY( 14,188)   DRY( 14,189)   DRY( 14,190)   DRY( 14,191)   DRY( 14,192)   
    DRY( 14,193)   DRY( 14,194)   DRY( 14,195)   DRY( 14,196)   DRY( 14,197)   
    DRY( 14,198)   DRY( 14,199)   DRY( 14,200)   DRY( 14,201)   DRY( 14,202)   
    DRY( 14,203)   DRY( 14,204)   DRY( 14,205)   DRY( 14,206)   DRY( 14,207)   
    DRY( 14,208)   DRY( 14,209)   DRY( 14,210)   DRY( 14,211)   DRY( 14,212)   
    DRY( 14,213)   DRY( 14,214)   DRY( 14,215)   DRY( 14,216)   DRY( 14,217)   
    DRY( 14,218)   DRY( 14,219)   DRY( 14,220)   DRY( 15,  1)   DRY( 15,  2)   
    DRY( 15,  3)   DRY( 15,  4)   DRY( 15,  5)   DRY( 15,  6)   DRY( 15,  7)   
    DRY( 15,  8)   DRY( 15,  9)   DRY( 15, 10)   DRY( 15, 11)   DRY( 15, 12)   
    DRY( 15, 13)   DRY( 15, 14)   DRY( 15, 15)   DRY( 15, 16)   DRY( 15, 17)   
    DRY( 15, 18)   DRY( 15, 19)   DRY( 15, 20)   DRY( 15, 21)   DRY( 15, 22)   
    DRY( 15, 23)   DRY( 15, 24)   DRY( 15, 25)   DRY( 15, 26)   DRY( 15, 27)   
    DRY( 15, 28)   DRY( 15, 29)   DRY( 15, 30)   DRY( 15, 31)   DRY( 15, 32)   
    DRY( 15, 33)   DRY( 15, 34)   DRY( 15, 35)   DRY( 15, 36)   DRY( 15, 37)   
    DRY( 15, 38)   DRY( 15, 39)   DRY( 15, 40)   DRY( 15, 41)   DRY( 15, 42)   
    DRY( 15, 43)   DRY( 15, 44)   DRY( 15, 45)   DRY( 15, 46)   DRY( 15, 47)   
    DRY( 15, 48)   DRY( 15, 49)   DRY( 15, 50)   DRY( 15, 51)   DRY( 15, 52)   
    DRY( 15, 53)   DRY( 15, 54)   DRY( 15, 55)   DRY( 15, 56)   DRY( 15, 57)   
    DRY( 15, 58)   DRY( 15, 59)   DRY( 15, 60)   DRY( 15, 61)   DRY( 15, 62)   
    DRY( 15, 63)   DRY( 15, 64)   DRY( 15, 65)   DRY( 15, 66)   DRY( 15, 67)   
    DRY( 15, 68)   DRY( 15, 69)   DRY( 15, 70)   DRY( 15, 71)   DRY( 15, 72)   
    DRY( 15, 73)   DRY( 15, 74)   DRY( 15, 75)   DRY( 15, 76)   DRY( 15, 77)   
    DRY( 15, 78)   DRY( 15, 79)   DRY( 15, 80)   DRY( 15, 81)   DRY( 15, 82)   
    DRY( 15, 83)   DRY( 15, 84)   DRY( 15, 85)   DRY( 15, 86)   DRY( 15, 87)   
    DRY( 15, 88)   DRY( 15, 89)   DRY( 15, 90)   DRY( 15, 91)   DRY( 15, 92)   
    DRY( 15, 93)   DRY( 15, 94)   DRY( 15, 95)   DRY( 15, 96)   DRY( 15, 97)   
    DRY( 15, 98)   DRY( 15, 99)   DRY( 15,100)   DRY( 15,101)   DRY( 15,102)   
    DRY( 15,103)   DRY( 15,104)   DRY( 15,105)   DRY( 15,106)   DRY( 15,107)   
    DRY( 15,108)   DRY( 15,109)   DRY( 15,110)   DRY( 15,111)   DRY( 15,112)   
    DRY( 15,113)   DRY( 15,114)   DRY( 15,115)   DRY( 15,116)   DRY( 15,117)   
    DRY( 15,118)   DRY( 15,119)   DRY( 15,120)   DRY( 15,121)   DRY( 15,122)   
    DRY( 15,123)   DRY( 15,124)   DRY( 15,125)   DRY( 15,126)   DRY( 15,127)   
    DRY( 15,128)   DRY( 15,129)   DRY( 15,130)   DRY( 15,131)   DRY( 15,132)   
    DRY( 15,133)   DRY( 15,134)   DRY( 15,135)   DRY( 15,136)   DRY( 15,137)   
    DRY( 15,138)   DRY( 15,139)   DRY( 15,140)   DRY( 15,141)   DRY( 15,142)   
    DRY( 15,143)   DRY( 15,144)   DRY( 15,145)   DRY( 15,146)   DRY( 15,147)   
    DRY( 15,148)   DRY( 15,149)   DRY( 15,150)   DRY( 15,151)   DRY( 15,152)   
    DRY( 15,153)   DRY( 15,154)   DRY( 15,155)   DRY( 15,156)   DRY( 15,157)   
    DRY( 15,158)   DRY( 15,159)   DRY( 15,160)   DRY( 15,161)   DRY( 15,162)   
    DRY( 15,163)   DRY( 15,164)   DRY( 15,165)   DRY( 15,166)   DRY( 15,167)   
    DRY( 15,168)   DRY( 15,169)   DRY( 15,170)   DRY( 15,171)   DRY( 15,172)   
    DRY( 15,173)   DRY( 15,174)   DRY( 15,175)   DRY( 15,176)   DRY( 15,177)   
    DRY( 15,178)   DRY( 15,179)   DRY( 15,180)   DRY( 15,181)   DRY( 15,182)   
    DRY( 15,183)   DRY( 15,184)   DRY( 15,185)   DRY( 15,186)   DRY( 15,187)   
    DRY( 15,188)   DRY( 15,189)   DRY( 15,190)   DRY( 15,191)   DRY( 15,192)   
    DRY( 15,193)   DRY( 15,194)   DRY( 15,195)   DRY( 15,196)   DRY( 15,197)   
    DRY( 15,198)   DRY( 15,199)   DRY( 15,200)   DRY( 15,201)   DRY( 15,202)   
    DRY( 15,203)   DRY( 15,204)   DRY( 15,205)   DRY( 15,206)   DRY( 15,207)   
    DRY( 15,208)   DRY( 15,209)   DRY( 15,210)   DRY( 15,211)   DRY( 15,212)   
    DRY( 15,213)   DRY( 15,214)   DRY( 15,215)   DRY( 15,216)   DRY( 15,217)   
    DRY( 15,218)   DRY( 15,219)   DRY( 15,220)   DRY( 16,  1)   DRY( 16,  2)   
    DRY( 16,  3)   DRY( 16,  4)   DRY( 16,  5)   DRY( 16,  6)   DRY( 16,  7)   
    DRY( 16,  8)   DRY( 16,  9)   DRY( 16, 10)   DRY( 16, 11)   DRY( 16, 12)   
    DRY( 16, 13)   DRY( 16, 14)   DRY( 16, 15)   DRY( 16, 16)   DRY( 16, 17)   
    DRY( 16, 18)   DRY( 16, 19)   DRY( 16, 20)   DRY( 16, 21)   DRY( 16, 22)   
    DRY( 16, 23)   DRY( 16, 24)   DRY( 16, 25)   DRY( 16, 26)   DRY( 16, 27)   
    DRY( 16, 28)   DRY( 16, 29)   DRY( 16, 30)   DRY( 16, 31)   DRY( 16, 32)   
    DRY( 16, 33)   DRY( 16, 34)   DRY( 16, 35)   DRY( 16, 36)   DRY( 16, 37)   
    DRY( 16, 38)   DRY( 16, 39)   DRY( 16, 40)   DRY( 16, 41)   DRY( 16, 42)   
    DRY( 16, 43)   DRY( 16, 44)   DRY( 16, 45)   DRY( 16, 46)   DRY( 16, 47)   
    DRY( 16, 48)   DRY( 16, 49)   DRY( 16, 50)   DRY( 16, 51)   DRY( 16, 52)   
    DRY( 16, 53)   DRY( 16, 54)   DRY( 16, 55)   DRY( 16, 56)   DRY( 16, 57)   
    DRY( 16, 58)   DRY( 16, 59)   DRY( 16, 60)   DRY( 16, 61)   DRY( 16, 62)   
    DRY( 16, 63)   DRY( 16, 64)   DRY( 16, 65)   DRY( 16, 66)   DRY( 16, 67)   
    DRY( 16, 68)   DRY( 16, 69)   DRY( 16, 70)   DRY( 16, 71)   DRY( 16, 72)   
    DRY( 16, 73)   DRY( 16, 74)   DRY( 16, 75)   DRY( 16, 76)   DRY( 16, 77)   
    DRY( 16, 78)   DRY( 16, 79)   DRY( 16, 80)   DRY( 16, 81)   DRY( 16, 82)   
    DRY( 16, 83)   DRY( 16, 84)   DRY( 16, 85)   DRY( 16, 86)   DRY( 16, 87)   
    DRY( 16, 88)   DRY( 16, 89)   DRY( 16, 90)   DRY( 16, 91)   DRY( 16, 92)   
    DRY( 16, 93)   DRY( 16, 94)   DRY( 16, 95)   DRY( 16, 96)   DRY( 16, 97)   
    DRY( 16, 98)   DRY( 16, 99)   DRY( 16,100)   DRY( 16,101)   DRY( 16,102)   
    DRY( 16,103)   DRY( 16,104)   DRY( 16,105)   DRY( 16,106)   DRY( 16,107)   
    DRY( 16,108)   DRY( 16,109)   DRY( 16,110)   DRY( 16,111)   DRY( 16,112)   
    DRY( 16,113)   DRY( 16,114)   DRY( 16,115)   DRY( 16,116)   DRY( 16,117)   
    DRY( 16,118)   DRY( 16,119)   DRY( 16,120)   DRY( 16,121)   DRY( 16,122)   
    DRY( 16,123)   DRY( 16,124)   DRY( 16,125)   DRY( 16,126)   DRY( 16,127)   
    DRY( 16,128)   DRY( 16,129)   DRY( 16,130)   DRY( 16,131)   DRY( 16,132)   
    DRY( 16,133)   DRY( 16,134)   DRY( 16,135)   DRY( 16,136)   DRY( 16,137)   
    DRY( 16,138)   DRY( 16,139)   DRY( 16,140)   DRY( 16,141)   DRY( 16,142)   
    DRY( 16,143)   DRY( 16,144)   DRY( 16,145)   DRY( 16,146)   DRY( 16,147)   
    DRY( 16,148)   DRY( 16,149)   DRY( 16,150)   DRY( 16,151)   DRY( 16,152)   
    DRY( 16,153)   DRY( 16,154)   DRY( 16,155)   DRY( 16,156)   DRY( 16,157)   
    DRY( 16,158)   DRY( 16,159)   DRY( 16,160)   DRY( 16,161)   DRY( 16,162)   
    DRY( 16,163)   DRY( 16,164)   DRY( 16,165)   DRY( 16,166)   DRY( 16,167)   
    DRY( 16,168)   DRY( 16,169)   DRY( 16,170)   DRY( 16,171)   DRY( 16,172)   
    DRY( 16,173)   DRY( 16,174)   DRY( 16,175)   DRY( 16,176)   DRY( 16,177)   
    DRY( 16,178)   DRY( 16,179)   DRY( 16,180)   DRY( 16,181)   DRY( 16,182)   
    DRY( 16,183)   DRY( 16,184)   DRY( 16,185)   DRY( 16,186)   DRY( 16,187)   
    DRY( 16,188)   DRY( 16,189)   DRY( 16,190)   DRY( 16,191)   DRY( 16,192)   
    DRY( 16,193)   DRY( 16,194)   DRY( 16,195)   DRY( 16,196)   DRY( 16,197)   
    DRY( 16,198)   DRY( 16,199)   DRY( 16,200)   DRY( 16,201)   DRY( 16,202)   
    DRY( 16,203)   DRY( 16,204)   DRY( 16,205)   DRY( 16,206)   DRY( 16,207)   
    DRY( 16,208)   DRY( 16,209)   DRY( 16,210)   DRY( 16,211)   DRY( 16,212)   
    DRY( 16,213)   DRY( 16,214)   DRY( 16,215)   DRY( 16,216)   DRY( 16,217)   
    DRY( 16,218)   DRY( 16,219)   DRY( 16,220)   DRY( 17,  1)   DRY( 17,  2)   
    DRY( 17,  3)   DRY( 17,  4)   DRY( 17,  5)   DRY( 17,  6)   DRY( 17,  7)   
    DRY( 17,  8)   DRY( 17,  9)   DRY( 17, 10)   DRY( 17, 11)   DRY( 17, 12)   
    DRY( 17, 13)   DRY( 17, 14)   DRY( 17, 15)   DRY( 17, 16)   DRY( 17, 17)   
    DRY( 17, 18)   DRY( 17, 19)   DRY( 17, 20)   DRY( 17, 21)   DRY( 17, 22)   
    DRY( 17, 23)   DRY( 17, 24)   DRY( 17, 25)   DRY( 17, 26)   DRY( 17, 27)   
    DRY( 17, 28)   DRY( 17, 29)   DRY( 17, 30)   DRY( 17, 31)   DRY( 17, 32)   
    DRY( 17, 33)   DRY( 17, 34)   DRY( 17, 35)   DRY( 17, 36)   DRY( 17, 37)   
    DRY( 17, 38)   DRY( 17, 39)   DRY( 17, 40)   DRY( 17, 41)   DRY( 17, 42)   
    DRY( 17, 43)   DRY( 17, 44)   DRY( 17, 45)   DRY( 17, 46)   DRY( 17, 47)   
    DRY( 17, 48)   DRY( 17, 49)   DRY( 17, 50)   DRY( 17, 51)   DRY( 17, 52)   
    DRY( 17, 53)   DRY( 17, 54)   DRY( 17, 55)   DRY( 17, 56)   DRY( 17, 57)   
    DRY( 17, 58)   DRY( 17, 59)   DRY( 17, 60)   DRY( 17, 61)   DRY( 17, 62)   
    DRY( 17, 63)   DRY( 17, 64)   DRY( 17, 65)   DRY( 17, 66)   DRY( 17, 67)   
    DRY( 17, 68)   DRY( 17, 69)   DRY( 17, 70)   DRY( 17, 71)   DRY( 17, 72)   
    DRY( 17, 73)   DRY( 17, 74)   DRY( 17, 75)   DRY( 17, 76)   DRY( 17, 77)   
    DRY( 17, 78)   DRY( 17, 79)   DRY( 17, 80)   DRY( 17, 81)   DRY( 17, 82)   
    DRY( 17, 83)   DRY( 17, 84)   DRY( 17, 85)   DRY( 17, 86)   DRY( 17, 87)   
    DRY( 17, 88)   DRY( 17, 89)   DRY( 17, 90)   DRY( 17, 91)   DRY( 17, 92)   
    DRY( 17, 93)   DRY( 17, 94)   DRY( 17, 95)   DRY( 17, 96)   DRY( 17, 97)   
    DRY( 17, 98)   DRY( 17, 99)   DRY( 17,100)   DRY( 17,101)   DRY( 17,102)   
    DRY( 17,103)   DRY( 17,104)   DRY( 17,105)   DRY( 17,106)   DRY( 17,107)   
    DRY( 17,108)   DRY( 17,109)   DRY( 17,110)   DRY( 17,111)   DRY( 17,112)   
    DRY( 17,113)   DRY( 17,114)   DRY( 17,115)   DRY( 17,116)   DRY( 17,117)   
    DRY( 17,118)   DRY( 17,119)   DRY( 17,120)   DRY( 17,121)   DRY( 17,122)   
    DRY( 17,123)   DRY( 17,124)   DRY( 17,125)   DRY( 17,126)   DRY( 17,127)   
    DRY( 17,128)   DRY( 17,129)   DRY( 17,130)   DRY( 17,131)   DRY( 17,132)   
    DRY( 17,133)   DRY( 17,134)   DRY( 17,135)   DRY( 17,136)   DRY( 17,137)   
    DRY( 17,138)   DRY( 17,139)   DRY( 17,140)   DRY( 17,141)   DRY( 17,142)   
    DRY( 17,143)   DRY( 17,144)   DRY( 17,145)   DRY( 17,146)   DRY( 17,147)   
    DRY( 17,148)   DRY( 17,149)   DRY( 17,150)   DRY( 17,151)   DRY( 17,152)   
    DRY( 17,153)   DRY( 17,154)   DRY( 17,155)   DRY( 17,156)   DRY( 17,157)   
    DRY( 17,158)   DRY( 17,159)   DRY( 17,160)   DRY( 17,161)   DRY( 17,162)   
    DRY( 17,163)   DRY( 17,164)   DRY( 17,165)   DRY( 17,166)   DRY( 17,167)   
    DRY( 17,168)   DRY( 17,169)   DRY( 17,170)   DRY( 17,171)   DRY( 17,172)   
    DRY( 17,173)   DRY( 17,174)   DRY( 17,175)   DRY( 17,176)   DRY( 17,177)   
    DRY( 17,178)   DRY( 17,179)   DRY( 17,180)   DRY( 17,181)   DRY( 17,182)   
    DRY( 17,183)   DRY( 17,184)   DRY( 17,185)   DRY( 17,186)   DRY( 17,187)   
    DRY( 17,188)   DRY( 17,189)   DRY( 17,190)   DRY( 17,191)   DRY( 17,192)   
    DRY( 17,193)   DRY( 17,194)   DRY( 17,195)   DRY( 17,196)   DRY( 17,197)   
    DRY( 17,198)   DRY( 17,199)   DRY( 17,200)   DRY( 17,201)   DRY( 17,202)   
    DRY( 17,203)   DRY( 17,204)   DRY( 17,205)   DRY( 17,206)   DRY( 17,207)   
    DRY( 17,208)   DRY( 17,209)   DRY( 17,210)   DRY( 17,211)   DRY( 17,212)   
    DRY( 17,213)   DRY( 17,214)   DRY( 17,215)   DRY( 17,216)   DRY( 17,217)   
    DRY( 17,218)   DRY( 17,219)   DRY( 17,220)   DRY( 18,  1)   DRY( 18,  2)   
    DRY( 18,  3)   DRY( 18,  4)   DRY( 18,  5)   DRY( 18,  6)   DRY( 18,  7)   
    DRY( 18,  8)   DRY( 18,  9)   DRY( 18, 10)   DRY( 18, 11)   DRY( 18, 12)   
    DRY( 18, 13)   DRY( 18, 14)   DRY( 18, 15)   DRY( 18, 16)   DRY( 18, 17)   
    DRY( 18, 18)   DRY( 18, 19)   DRY( 18, 20)   DRY( 18, 21)   DRY( 18, 22)   
    DRY( 18, 23)   DRY( 18, 24)   DRY( 18, 25)   DRY( 18, 26)   DRY( 18, 27)   
    DRY( 18, 28)   DRY( 18, 29)   DRY( 18, 30)   DRY( 18, 31)   DRY( 18, 32)   
    DRY( 18, 33)   DRY( 18, 34)   DRY( 18, 35)   DRY( 18, 36)   DRY( 18, 37)   
    DRY( 18, 38)   DRY( 18, 39)   DRY( 18, 40)   DRY( 18, 41)   DRY( 18, 42)   
    DRY( 18, 43)   DRY( 18, 44)   DRY( 18, 45)   DRY( 18, 46)   DRY( 18, 47)   
    DRY( 18, 48)   DRY( 18, 49)   DRY( 18, 50)   DRY( 18, 51)   DRY( 18, 52)   
    DRY( 18, 53)   DRY( 18, 54)   DRY( 18, 55)   DRY( 18, 56)   DRY( 18, 57)   
    DRY( 18, 58)   DRY( 18, 59)   DRY( 18, 60)   DRY( 18, 61)   DRY( 18, 62)   
    DRY( 18, 63)   DRY( 18, 64)   DRY( 18, 65)   DRY( 18, 66)   DRY( 18, 67)   
    DRY( 18, 68)   DRY( 18, 69)   DRY( 18, 70)   DRY( 18, 71)   DRY( 18, 72)   
    DRY( 18, 73)   DRY( 18, 74)   DRY( 18, 75)   DRY( 18, 76)   DRY( 18, 77)   
    DRY( 18, 78)   DRY( 18, 79)   DRY( 18, 80)   DRY( 18, 81)   DRY( 18, 82)   
    DRY( 18, 83)   DRY( 18, 84)   DRY( 18, 85)   DRY( 18, 86)   DRY( 18, 87)   
    DRY( 18, 88)   DRY( 18, 89)   DRY( 18, 90)   DRY( 18, 91)   DRY( 18, 92)   
    DRY( 18, 93)   DRY( 18, 94)   DRY( 18, 95)   DRY( 18, 96)   DRY( 18, 97)   
    DRY( 18, 98)   DRY( 18, 99)   DRY( 18,100)   DRY( 18,101)   DRY( 18,102)   
    DRY( 18,103)   DRY( 18,104)   DRY( 18,105)   DRY( 18,106)   DRY( 18,107)   
    DRY( 18,108)   DRY( 18,109)   DRY( 18,110)   DRY( 18,111)   DRY( 18,112)   
    DRY( 18,113)   DRY( 18,114)   DRY( 18,115)   DRY( 18,116)   DRY( 18,117)   
    DRY( 18,118)   DRY( 18,119)   DRY( 18,120)   DRY( 18,121)   DRY( 18,122)   
    DRY( 18,123)   DRY( 18,124)   DRY( 18,125)   DRY( 18,126)   DRY( 18,127)   
    DRY( 18,128)   DRY( 18,129)   DRY( 18,130)   DRY( 18,131)   DRY( 18,132)   
    DRY( 18,133)   DRY( 18,134)   DRY( 18,135)   DRY( 18,136)   DRY( 18,137)   
    DRY( 18,138)   DRY( 18,139)   DRY( 18,140)   DRY( 18,141)   DRY( 18,142)   
    DRY( 18,143)   DRY( 18,144)   DRY( 18,145)   DRY( 18,146)   DRY( 18,147)   
    DRY( 18,148)   DRY( 18,149)   DRY( 18,150)   DRY( 18,151)   DRY( 18,152)   
    DRY( 18,153)   DRY( 18,154)   DRY( 18,155)   DRY( 18,156)   DRY( 18,157)   
    DRY( 18,158)   DRY( 18,159)   DRY( 18,160)   DRY( 18,161)   DRY( 18,162)   
    DRY( 18,163)   DRY( 18,164)   DRY( 18,165)   DRY( 18,166)   DRY( 18,167)   
    DRY( 18,168)   DRY( 18,169)   DRY( 18,170)   DRY( 18,171)   DRY( 18,172)   
    DRY( 18,173)   DRY( 18,174)   DRY( 18,175)   DRY( 18,176)   DRY( 18,177)   
    DRY( 18,178)   DRY( 18,179)   DRY( 18,180)   DRY( 18,181)   DRY( 18,182)   
    DRY( 18,183)   DRY( 18,184)   DRY( 18,185)   DRY( 18,186)   DRY( 18,187)   
    DRY( 18,188)   DRY( 18,189)   DRY( 18,190)   DRY( 18,191)   DRY( 18,192)   
    DRY( 18,193)   DRY( 18,194)   DRY( 18,195)   DRY( 18,196)   DRY( 18,197)   
    DRY( 18,198)   DRY( 18,199)   DRY( 18,200)   DRY( 18,201)   DRY( 18,202)   
    DRY( 18,203)   DRY( 18,204)   DRY( 18,205)   DRY( 18,206)   DRY( 18,207)   
    DRY( 18,208)   DRY( 18,209)   DRY( 18,210)   DRY( 18,211)   DRY( 18,212)   
    DRY( 18,213)   DRY( 18,214)   DRY( 18,215)   DRY( 18,216)   DRY( 18,217)   
    DRY( 18,218)   DRY( 18,219)   DRY( 18,220)   DRY( 19,  1)   DRY( 19,  2)   
    DRY( 19,  3)   DRY( 19,  4)   DRY( 19,  5)   DRY( 19,  6)   DRY( 19,  7)   
    DRY( 19,  8)   DRY( 19,  9)   DRY( 19, 10)   DRY( 19, 11)   DRY( 19, 12)   
    DRY( 19, 13)   DRY( 19, 14)   DRY( 19, 15)   DRY( 19, 16)   DRY( 19, 17)   
    DRY( 19, 18)   DRY( 19, 19)   DRY( 19, 20)   DRY( 19, 21)   DRY( 19, 22)   
    DRY( 19, 23)   DRY( 19, 24)   DRY( 19, 25)   DRY( 19, 26)   DRY( 19, 27)   
    DRY( 19, 28)   DRY( 19, 29)   DRY( 19, 30)   DRY( 19, 31)   DRY( 19, 32)   
    DRY( 19, 33)   DRY( 19, 34)   DRY( 19, 35)   DRY( 19, 36)   DRY( 19, 37)   
    DRY( 19, 38)   DRY( 19, 39)   DRY( 19, 40)   DRY( 19, 41)   DRY( 19, 42)   
    DRY( 19, 43)   DRY( 19, 44)   DRY( 19, 45)   DRY( 19, 46)   DRY( 19, 47)   
    DRY( 19, 48)   DRY( 19, 49)   DRY( 19, 50)   DRY( 19, 51)   DRY( 19, 52)   
    DRY( 19, 53)   DRY( 19, 54)   DRY( 19, 55)   DRY( 19, 56)   DRY( 19, 57)   
    DRY( 19, 58)   DRY( 19, 59)   DRY( 19, 60)   DRY( 19, 61)   DRY( 19, 62)   
    DRY( 19, 63)   DRY( 19, 64)   DRY( 19, 65)   DRY( 19, 66)   DRY( 19, 67)   
    DRY( 19, 68)   DRY( 19, 69)   DRY( 19, 70)   DRY( 19, 71)   DRY( 19, 72)   
    DRY( 19, 73)   DRY( 19, 74)   DRY( 19, 75)   DRY( 19, 76)   DRY( 19, 77)   
    DRY( 19, 78)   DRY( 19, 79)   DRY( 19, 80)   DRY( 19, 81)   DRY( 19, 82)   
    DRY( 19, 83)   DRY( 19, 84)   DRY( 19, 85)   DRY( 19, 86)   DRY( 19, 87)   
    DRY( 19, 88)   DRY( 19, 89)   DRY( 19, 90)   DRY( 19, 91)   DRY( 19, 92)   
    DRY( 19, 93)   DRY( 19, 94)   DRY( 19, 95)   DRY( 19, 96)   DRY( 19, 97)   
    DRY( 19, 98)   DRY( 19, 99)   DRY( 19,100)   DRY( 19,101)   DRY( 19,102)   
    DRY( 19,103)   DRY( 19,104)   DRY( 19,105)   DRY( 19,106)   DRY( 19,107)   
    DRY( 19,108)   DRY( 19,109)   DRY( 19,110)   DRY( 19,111)   DRY( 19,112)   
    DRY( 19,113)   DRY( 19,114)   DRY( 19,115)   DRY( 19,116)   DRY( 19,117)   
    DRY( 19,118)   DRY( 19,119)   DRY( 19,120)   DRY( 19,121)   DRY( 19,122)   
    DRY( 19,123)   DRY( 19,124)   DRY( 19,125)   DRY( 19,126)   DRY( 19,127)   
    DRY( 19,128)   DRY( 19,129)   DRY( 19,130)   DRY( 19,131)   DRY( 19,132)   
    DRY( 19,133)   DRY( 19,134)   DRY( 19,135)   DRY( 19,136)   DRY( 19,137)   
    DRY( 19,138)   DRY( 19,139)   DRY( 19,140)   DRY( 19,141)   DRY( 19,142)   
    DRY( 19,143)   DRY( 19,144)   DRY( 19,145)   DRY( 19,146)   DRY( 19,147)   
    DRY( 19,148)   DRY( 19,149)   DRY( 19,150)   DRY( 19,151)   DRY( 19,152)   
    DRY( 19,153)   DRY( 19,154)   DRY( 19,155)   DRY( 19,156)   DRY( 19,157)   
    DRY( 19,158)   DRY( 19,159)   DRY( 19,160)   DRY( 19,161)   DRY( 19,162)   
    DRY( 19,163)   DRY( 19,164)   DRY( 19,165)   DRY( 19,166)   DRY( 19,167)   
    DRY( 19,168)   DRY( 19,169)   DRY( 19,170)   DRY( 19,171)   DRY( 19,172)   
    DRY( 19,173)   DRY( 19,174)   DRY( 19,175)   DRY( 19,176)   DRY( 19,177)   
    DRY( 19,178)   DRY( 19,179)   DRY( 19,180)   DRY( 19,181)   DRY( 19,182)   
    DRY( 19,183)   DRY( 19,184)   DRY( 19,185)   DRY( 19,186)   DRY( 19,187)   
    DRY( 19,188)   DRY( 19,189)   DRY( 19,190)   DRY( 19,191)   DRY( 19,192)   
    DRY( 19,193)   DRY( 19,194)   DRY( 19,195)   DRY( 19,196)   DRY( 19,197)   
    DRY( 19,198)   DRY( 19,199)   DRY( 19,200)   DRY( 19,201)   DRY( 19,202)   
    DRY( 19,203)   DRY( 19,204)   DRY( 19,205)   DRY( 19,206)   DRY( 19,207)   
    DRY( 19,208)   DRY( 19,209)   DRY( 19,210)   DRY( 19,211)   DRY( 19,212)   
    DRY( 19,213)   DRY( 19,214)   DRY( 19,215)   DRY( 19,216)   DRY( 19,217)   
    DRY( 19,218)   DRY( 19,219)   DRY( 19,220)   DRY( 20,  1)   DRY( 20,  2)   
    DRY( 20,  3)   DRY( 20,  4)   DRY( 20,  5)   DRY( 20,  6)   DRY( 20,  7)   
    DRY( 20,  8)   DRY( 20,  9)   DRY( 20, 10)   DRY( 20, 11)   DRY( 20, 12)   
    DRY( 20, 13)   DRY( 20, 14)   DRY( 20, 15)   DRY( 20, 16)   DRY( 20, 17)   
    DRY( 20, 18)   DRY( 20, 19)   DRY( 20, 20)   DRY( 20, 21)   DRY( 20, 22)   
    DRY( 20, 23)   DRY( 20, 24)   DRY( 20, 25)   DRY( 20, 26)   DRY( 20, 27)   
    DRY( 20, 28)   DRY( 20, 29)   DRY( 20, 30)   DRY( 20, 31)   DRY( 20, 32)   
    DRY( 20, 33)   DRY( 20, 34)   DRY( 20, 35)   DRY( 20, 36)   DRY( 20, 37)   
    DRY( 20, 38)   DRY( 20, 39)   DRY( 20, 40)   DRY( 20, 41)   DRY( 20, 42)   
    DRY( 20, 43)   DRY( 20, 44)   DRY( 20, 45)   DRY( 20, 46)   DRY( 20, 47)   
    DRY( 20, 48)   DRY( 20, 49)   DRY( 20, 50)   DRY( 20, 51)   DRY( 20, 52)   
    DRY( 20, 53)   DRY( 20, 54)   DRY( 20, 55)   DRY( 20, 56)   DRY( 20, 57)   
    DRY( 20, 58)   DRY( 20, 59)   DRY( 20, 60)   DRY( 20, 61)   DRY( 20, 62)   
    DRY( 20, 63)   DRY( 20, 64)   DRY( 20, 65)   DRY( 20, 66)   DRY( 20, 67)   
    DRY( 20, 68)   DRY( 20, 69)   DRY( 20, 70)   DRY( 20, 71)   DRY( 20, 72)   
    DRY( 20, 73)   DRY( 20, 74)   DRY( 20, 75)   DRY( 20, 76)   DRY( 20, 77)   
    DRY( 20, 78)   DRY( 20, 79)   DRY( 20, 80)   DRY( 20, 81)   DRY( 20, 82)   
    DRY( 20, 83)   DRY( 20, 84)   DRY( 20, 85)   DRY( 20, 86)   DRY( 20, 87)   
    DRY( 20, 88)   DRY( 20, 89)   DRY( 20, 90)   DRY( 20, 91)   DRY( 20, 92)   
    DRY( 20, 93)   DRY( 20, 94)   DRY( 20, 95)   DRY( 20, 96)   DRY( 20, 97)   
    DRY( 20, 98)   DRY( 20, 99)   DRY( 20,100)   DRY( 20,101)   DRY( 20,102)   
    DRY( 20,103)   DRY( 20,104)   DRY( 20,105)   DRY( 20,106)   DRY( 20,107)   
    DRY( 20,108)   DRY( 20,109)   DRY( 20,110)   DRY( 20,111)   DRY( 20,112)   
    DRY( 20,113)   DRY( 20,114)   DRY( 20,115)   DRY( 20,116)   DRY( 20,117)   
    DRY( 20,118)   DRY( 20,119)   DRY( 20,120)   DRY( 20,121)   DRY( 20,122)   
    DRY( 20,123)   DRY( 20,124)   DRY( 20,125)   DRY( 20,126)   DRY( 20,127)   
    DRY( 20,128)   DRY( 20,129)   DRY( 20,130)   DRY( 20,131)   DRY( 20,132)   
    DRY( 20,133)   DRY( 20,134)   DRY( 20,135)   DRY( 20,136)   DRY( 20,137)   
    DRY( 20,138)   DRY( 20,139)   DRY( 20,140)   DRY( 20,141)   DRY( 20,142)   
    DRY( 20,143)   DRY( 20,144)   DRY( 20,145)   DRY( 20,146)   DRY( 20,147)   
    DRY( 20,148)   DRY( 20,149)   DRY( 20,150)   DRY( 20,151)   DRY( 20,152)   
    DRY( 20,153)   DRY( 20,154)   DRY( 20,155)   DRY( 20,156)   DRY( 20,157)   
    DRY( 20,158)   DRY( 20,159)   DRY( 20,160)   DRY( 20,161)   DRY( 20,162)   
    DRY( 20,163)   DRY( 20,164)   DRY( 20,165)   DRY( 20,166)   DRY( 20,167)   
    DRY( 20,168)   DRY( 20,169)   DRY( 20,170)   DRY( 20,171)   DRY( 20,172)   
    DRY( 20,173)   DRY( 20,174)   DRY( 20,175)   DRY( 20,176)   DRY( 20,177)   
    DRY( 20,178)   DRY( 20,179)   DRY( 20,180)   DRY( 20,181)   DRY( 20,182)   
    DRY( 20,183)   DRY( 20,184)   DRY( 20,185)   DRY( 20,186)   DRY( 20,187)   
    DRY( 20,188)   DRY( 20,189)   DRY( 20,190)   DRY( 20,191)   DRY( 20,192)   
    DRY( 20,193)   DRY( 20,194)   DRY( 20,195)   DRY( 20,196)   DRY( 20,197)   
    DRY( 20,198)   DRY( 20,199)   DRY( 20,200)   DRY( 20,201)   DRY( 20,202)   
    DRY( 20,203)   DRY( 20,204)   DRY( 20,205)   DRY( 20,206)   DRY( 20,207)   
    DRY( 20,208)   DRY( 20,209)   DRY( 20,210)   DRY( 20,211)   DRY( 20,212)   
    DRY( 20,213)   DRY( 20,214)   DRY( 20,215)   DRY( 20,216)   DRY( 20,217)   
    DRY( 20,218)   DRY( 20,219)   DRY( 20,220)   

 CELL CONVERSIONS FOR ITER.=  2  LAYER=  7  STEP=  1  PERIOD=   1   (ROW,COL)
    DRY(  9,  1)   DRY(  9,  2)   DRY(  9,  3)   DRY(  9,  4)   DRY(  9,220)   
    DRY( 10,  1)   DRY( 10,  2)   DRY( 10,  3)   DRY( 10,  4)   DRY( 10,  5)   
    DRY( 10,  6)   DRY( 10,  7)   DRY( 10,  8)   DRY( 10,  9)   DRY( 10, 10)   
    DRY( 10, 11)   DRY( 11,  1)   DRY( 11,  2)   DRY( 11,  3)   DRY( 11,  4)   
    DRY( 11,  5)   DRY( 11,  6)   DRY( 11,  7)   DRY( 11,  8)   DRY( 11,  9)   
    DRY( 11, 10)   DRY( 11, 11)   DRY( 11, 12)   DRY( 11, 13)   DRY( 11, 14)   
    DRY( 11, 15)   DRY( 11, 16)   DRY( 11, 17)   DRY( 11, 18)   DRY( 11, 19)   
    DRY( 11, 20)   DRY( 11, 21)   DRY( 11, 22)   DRY( 11, 23)   DRY( 11,159)   
    DRY( 11,160)   DRY( 11,161)   DRY( 11,162)   DRY( 11,163)   DRY( 11,192)   
    DRY( 11,193)   DRY( 11,194)   DRY( 11,195)   DRY( 11,196)   DRY( 11,197)   
    DRY( 11,198)   DRY( 11,199)   DRY( 11,200)   DRY( 11,201)   DRY( 12,  1)   
    DRY( 12,  2)   DRY( 12,  3)   DRY( 12,  4)   DRY( 12,  5)   DRY( 12,  6)   
    DRY( 12,  7)   DRY( 12,  8)   DRY( 12,  9)   DRY( 12, 10)   DRY( 12, 11)   
    DRY( 12, 12)   DRY( 12, 13)   DRY( 12, 14)   DRY( 12, 15)   DRY( 12, 16)   
    DRY( 12, 17)   DRY( 12, 18)   DRY( 12, 19)   DRY( 12, 20)   DRY( 12, 21)   
    DRY( 12, 22)   DRY( 12, 23)   DRY( 12, 24)   DRY( 12, 25)   DRY( 12, 26)   
    DRY( 12, 27)   DRY( 12, 28)   DRY( 12, 29)   DRY( 12, 30)   DRY( 12, 31)   
    DRY( 12, 32)   DRY( 12, 33)   DRY( 12, 34)   DRY( 12, 35)   DRY( 12, 36)   
    DRY( 12, 37)   DRY( 12, 38)   DRY( 12, 39)   DRY( 12, 40)   DRY( 12, 41)   
    DRY( 12, 42)   DRY( 12, 43)   DRY( 12, 44)   DRY( 12, 45)   DRY( 12, 46)   
    DRY( 12, 47)   DRY( 12, 48)   DRY( 12, 49)   DRY( 12, 50)   DRY( 12, 51)   
    DRY( 12, 52)   DRY( 12, 53)   DRY( 12, 54)   DRY( 12, 55)   DRY( 12, 56)   
    DRY( 12, 57)   DRY( 12, 58)   DRY( 12, 59)   DRY( 12, 60)   DRY( 12, 61)   
    DRY( 12, 62)   DRY( 12, 63)   DRY( 12, 64)   DRY( 12, 65)   DRY( 12, 66)   
    DRY( 12, 67)   DRY( 12, 68)   DRY( 12, 69)   DRY( 12, 70)   DRY( 12, 71)   
    DRY( 12, 72)   DRY( 12, 73)   DRY( 12, 74)   DRY( 12, 75)   DRY( 12, 76)   
    DRY( 12, 77)   DRY( 12, 78)   DRY( 12, 79)   DRY( 12, 80)   DRY( 12, 81)   
    DRY( 12, 82)   DRY( 12, 83)   DRY( 12, 84)   DRY( 12, 85)   DRY( 12, 86)   
    DRY( 12, 87)   DRY( 12, 88)   DRY( 12, 89)   DRY( 12, 90)   DRY( 12, 91)   
    DRY( 12, 92)   DRY( 12, 93)   DRY( 12, 94)   DRY( 12, 95)   DRY( 12, 96)   
    DRY( 12, 97)   DRY( 12, 98)   DRY( 12, 99)   DRY( 12,100)   DRY( 12,101)   
    DRY( 12,102)   DRY( 12,103)   DRY( 12,104)   DRY( 12,105)   DRY( 12,106)   
    DRY( 12,107)   DRY( 12,108)   DRY( 12,109)   DRY( 12,110)   DRY( 12,111)   
    DRY( 12,112)   DRY( 12,113)   DRY( 12,114)   DRY( 12,115)   DRY( 12,116)   
    DRY( 12,117)   DRY( 12,118)   DRY( 12,119)   DRY( 12,120)   DRY( 12,121)   
    DRY( 12,122)   DRY( 12,123)   DRY( 12,124)   DRY( 12,125)   DRY( 12,126)   
    DRY( 12,127)   DRY( 12,128)   DRY( 12,129)   DRY( 12,130)   DRY( 12,131)   
    DRY( 12,132)   DRY( 12,133)   DRY( 12,134)   DRY( 12,135)   DRY( 12,136)   
    DRY( 12,137)   DRY( 12,138)   DRY( 12,139)   DRY( 12,140)   DRY( 12,141)   
    DRY( 12,142)   DRY( 12,143)   DRY( 12,144)   DRY( 12,145)   DRY( 12,146)   
    DRY( 12,147)   DRY( 12,148)   DRY( 12,149)   DRY( 12,150)   DRY( 12,151)   
    DRY( 12,152)   DRY( 12,153)   DRY( 12,154)   DRY( 12,155)   DRY( 12,156)   
    DRY( 12,157)   DRY( 12,158)   DRY( 12,159)   DRY( 12,160)   DRY( 12,161)   
    DRY( 12,162)   DRY( 12,163)   DRY( 12,164)   DRY( 12,165)   DRY( 12,166)   
    DRY( 12,167)   DRY( 12,168)   DRY( 12,169)   DRY( 12,170)   DRY( 12,171)   
    DRY( 12,172)   DRY( 12,173)   DRY( 12,174)   DRY( 12,175)   DRY( 12,176)   
    DRY( 12,177)   DRY( 12,178)   DRY( 12,179)   DRY( 12,180)   DRY( 12,181)   
    DRY( 12,182)   DRY( 12,183)   DRY( 12,184)   DRY( 12,185)   DRY( 12,186)   
    DRY( 12,187)   DRY( 12,188)   DRY( 12,189)   DRY( 12,190)   DRY( 12,191)   
    DRY( 12,192)   DRY( 12,193)   DRY( 12,194)   DRY( 12,195)   DRY( 12,196)   
    DRY( 12,197)   DRY( 12,198)   DRY( 12,199)   DRY( 12,200)   DRY( 12,201)   
    DRY( 12,202)   DRY( 12,203)   DRY( 12,210)   DRY( 12,211)   DRY( 13,  1)   
    DRY( 13,  2)   DRY( 13,  3)   DRY( 13,  4)   DRY( 13,  5)   DRY( 13,  6)   
    DRY( 13,  7)   DRY( 13,  8)   DRY( 13,  9)   DRY( 13, 10)   DRY( 13, 11)   
    DRY( 13, 12)   DRY( 13, 13)   DRY( 13, 14)   DRY( 13, 15)   DRY( 13, 16)   
    DRY( 13, 17)   DRY( 13, 18)   DRY( 13, 19)   DRY( 13, 20)   DRY( 13, 21)   
    DRY( 13, 22)   DRY( 13, 23)   DRY( 13, 24)   DRY( 13, 25)   DRY( 13, 26)   
    DRY( 13, 27)   DRY( 13, 28)   DRY( 13, 29)   DRY( 13, 30)   DRY( 13, 31)   
    DRY( 13, 32)   DRY( 13, 33)   DRY( 13, 34)   DRY( 13, 35)   DRY( 13, 36)   
    DRY( 13, 37)   DRY( 13, 38)   DRY( 13, 39)   DRY( 13, 40)   DRY( 13, 41)   
    DRY( 13, 42)   DRY( 13, 43)   DRY( 13, 44)   DRY( 13, 45)   DRY( 13, 46)   
    DRY( 13, 47)   DRY( 13, 48)   DRY( 13, 49)   DRY( 13, 50)   DRY( 13, 51)   
    DRY( 13, 52)   DRY( 13, 53)   DRY( 13, 54)   DRY( 13, 55)   DRY( 13, 56)   
    DRY( 13, 57)   DRY( 13, 58)   DRY( 13, 59)   DRY( 13, 60)   DRY( 13, 61)   
    DRY( 13, 62)   DRY( 13, 63)   DRY( 13, 64)   DRY( 13, 65)   DRY( 13, 66)   
    DRY( 13, 67)   DRY( 13, 68)   DRY( 13, 69)   DRY( 13, 70)   DRY( 13, 71)   
    DRY( 13, 72)   DRY( 13, 73)   DRY( 13, 74)   DRY( 13, 75)   DRY( 13, 76)   
    DRY( 13, 77)   DRY( 13, 78)   DRY( 13, 79)   DRY( 13, 80)   DRY( 13, 81)   
    DRY( 13, 82)   DRY( 13, 83)   DRY( 13, 84)   DRY( 13, 85)   DRY( 13, 86)   
    DRY( 13, 87)   DRY( 13, 88)   DRY( 13, 89)   DRY( 13, 90)   DRY( 13, 91)   
    DRY( 13, 92)   DRY( 13, 93)   DRY( 13, 94)   DRY( 13, 95)   DRY( 13, 96)   
    DRY( 13, 97)   DRY( 13, 98)   DRY( 13, 99)   DRY( 13,100)   DRY( 13,101)   
    DRY( 13,102)   DRY( 13,103)   DRY( 13,104)   DRY( 13,105)   DRY( 13,106)   
    DRY( 13,107)   DRY( 13,108)   DRY( 13,109)   DRY( 13,110)   DRY( 13,111)   
    DRY( 13,112)   DRY( 13,113)   DRY( 13,114)   DRY( 13,115)   DRY( 13,116)   
    DRY( 13,117)   DRY( 13,118)   DRY( 13,119)   DRY( 13,120)   DRY( 13,121)   
    DRY( 13,122)   DRY( 13,123)   DRY( 13,124)   DRY( 13,125)   DRY( 13,126)   
    DRY( 13,127)   DRY( 13,128)   DRY( 13,129)   DRY( 13,130)   DRY( 13,131)   
    DRY( 13,132)   DRY( 13,133)   DRY( 13,134)   DRY( 13,135)   DRY( 13,136)   
    DRY( 13,137)   DRY( 13,138)   DRY( 13,139)   DRY( 13,140)   DRY( 13,141)   
    DRY( 13,142)   DRY( 13,143)   DRY( 13,144)   DRY( 13,145)   DRY( 13,146)   
    DRY( 13,147)   DRY( 13,148)   DRY( 13,149)   DRY( 13,150)   DRY( 13,151)   
    DRY( 13,152)   DRY( 13,153)   DRY( 13,154)   DRY( 13,155)   DRY( 13,156)   
    DRY( 13,157)   DRY( 13,158)   DRY( 13,159)   DRY( 13,160)   DRY( 13,161)   
    DRY( 13,162)   DRY( 13,163)   DRY( 13,164)   DRY( 13,165)   DRY( 13,166)   
    DRY( 13,167)   DRY( 13,168)   DRY( 13,169)   DRY( 13,170)   DRY( 13,171)   
    DRY( 13,172)   DRY( 13,173)   DRY( 13,174)   DRY( 13,175)   DRY( 13,176)   
    DRY( 13,177)   DRY( 13,178)   DRY( 13,179)   DRY( 13,180)   DRY( 13,181)   
    DRY( 13,182)   DRY( 13,183)   DRY( 13,184)   DRY( 13,185)   DRY( 13,186)   
    DRY( 13,187)   DRY( 13,188)   DRY( 13,189)   DRY( 13,190)   DRY( 13,191)   
    DRY( 13,192)   DRY( 13,193)   DRY( 13,194)   DRY( 13,195)   DRY( 13,196)   
    DRY( 13,197)   DRY( 13,198)   DRY( 13,199)   DRY( 13,200)   DRY( 13,201)   
    DRY( 13,202)   DRY( 13,203)   DRY( 13,204)   DRY( 13,205)   DRY( 13,206)   
    DRY( 13,209)   DRY( 13,210)   DRY( 13,211)   DRY( 13,212)   DRY( 13,213)   
    DRY( 14,  1)   DRY( 14,  2)   DRY( 14,  3)   DRY( 14,  4)   DRY( 14,  5)   
    DRY( 14,  6)   DRY( 14,  7)   DRY( 14,  8)   DRY( 14,  9)   DRY( 14, 10)   
    DRY( 14, 11)   DRY( 14, 12)   DRY( 14, 13)   DRY( 14, 14)   DRY( 14, 15)   
    DRY( 14, 16)   DRY( 14, 17)   DRY( 14, 18)   DRY( 14, 19)   DRY( 14, 20)   
    DRY( 14, 21)   DRY( 14, 22)   DRY( 14, 23)   DRY( 14, 24)   DRY( 14, 25)   
    DRY( 14, 26)   DRY( 14, 27)   DRY( 14, 28)   DRY( 14, 29)   DRY( 14, 30)   
    DRY( 14, 31)   DRY( 14, 32)   DRY( 14, 33)   DRY( 14, 34)   DRY( 14, 35)   
    DRY( 14, 36)   DRY( 14, 37)   DRY( 14, 38)   DRY( 14, 39)   DRY( 14, 40)   
    DRY( 14, 41)   DRY( 14, 42)   DRY( 14, 43)   DRY( 14, 44)   DRY( 14, 45)   
    DRY( 14, 46)   DRY( 14, 47)   DRY( 14, 48)   DRY( 14, 49)   DRY( 14, 50)   
    DRY( 14, 51)   DRY( 14, 52)   DRY( 14, 53)   DRY( 14, 54)   DRY( 14, 55)   
    DRY( 14, 56)   DRY( 14, 57)   DRY( 14, 58)   DRY( 14, 59)   DRY( 14, 60)   
    DRY( 14, 61)   DRY( 14, 62)   DRY( 14, 63)   DRY( 14, 64)   DRY( 14, 65)   
    DRY( 14, 66)   DRY( 14, 67)   DRY( 14, 68)   DRY( 14, 69)   DRY( 14, 70)   
    DRY( 14, 71)   DRY( 14, 72)   DRY( 14, 73)   DRY( 14, 74)   DRY( 14, 75)   
    DRY( 14, 76)   DRY( 14, 77)   DRY( 14, 78)   DRY( 14, 79)   DRY( 14, 80)   
    DRY( 14, 81)   DRY( 14, 82)   DRY( 14, 83)   DRY( 14, 84)   DRY( 14, 85)   
    DRY( 14, 86)   DRY( 14, 87)   DRY( 14, 88)   DRY( 14, 89)   DRY( 14, 90)   
    DRY( 14, 91)   DRY( 14, 92)   DRY( 14, 93)   DRY( 14, 94)   DRY( 14, 95)   
    DRY( 14, 96)   DRY( 14, 97)   DRY( 14, 98)   DRY( 14, 99)   DRY( 14,100)   
    DRY( 14,101)   DRY( 14,102)   DRY( 14,103)   DRY( 14,104)   DRY( 14,105)   
    DRY( 14,106)   DRY( 14,107)   DRY( 14,108)   DRY( 14,109)   DRY( 14,110)   
    DRY( 14,111)   DRY( 14,112)   DRY( 14,113)   DRY( 14,114)   DRY( 14,115)   
    DRY( 14,116)   DRY( 14,117)   DRY( 14,118)   DRY( 14,119)   DRY( 14,120)   
    DRY( 14,121)   DRY( 14,122)   DRY( 14,123)   DRY( 14,124)   DRY( 14,125)   
    DRY( 14,126)   DRY( 14,127)   DRY( 14,128)   DRY( 14,129)   DRY( 14,130)   
    DRY( 14,131)   DRY( 14,132)   DRY( 14,133)   DRY( 14,134)   DRY( 14,135)   
    DRY( 14,136)   DRY( 14,137)   DRY( 14,138)   DRY( 14,139)   DRY( 14,140)   
    DRY( 14,141)   DRY( 14,142)   DRY( 14,143)   DRY( 14,144)   DRY( 14,145)   
    DRY( 14,146)   DRY( 14,147)   DRY( 14,148)   DRY( 14,149)   DRY( 14,150)   
    DRY( 14,151)   DRY( 14,152)   DRY( 14,153)   DRY( 14,154)   DRY( 14,155)   
    DRY( 14,156)   DRY( 14,157)   DRY( 14,158)   DRY( 14,159)   DRY( 14,160)   
    DRY( 14,161)   DRY( 14,162)   DRY( 14,163)   DRY( 14,164)   DRY( 14,165)   
    DRY( 14,166)   DRY( 14,167)   DRY( 14,168)   DRY( 14,169)   DRY( 14,170)   
    DRY( 14,171)   DRY( 14,172)   DRY( 14,173)   DRY( 14,174)   DRY( 14,175)   
    DRY( 14,176)   DRY( 14,177)   DRY( 14,178)   DRY( 14,179)   DRY( 14,180)   
    DRY( 14,181)   DRY( 14,182)   DRY( 14,183)   DRY( 14,184)   DRY( 14,185)   
    DRY( 14,186)   DRY( 14,187)   DRY( 14,188)   DRY( 14,189)   DRY( 14,190)   
    DRY( 14,191)   DRY( 14,192)   DRY( 14,193)   DRY( 14,194)   DRY( 14,195)   
    DRY( 14,196)   DRY( 14,197)   DRY( 14,198)   DRY( 14,199)   DRY( 14,200)   
    DRY( 14,201)   DRY( 14,202)   DRY( 14,203)   DRY( 14,204)   DRY( 14,205)   
    DRY( 14,206)   DRY( 14,207)   DRY( 14,208)   DRY( 14,209)   DRY( 14,210)   
    DRY( 14,211)   DRY( 14,212)   DRY( 14,213)   DRY( 14,214)   DRY( 14,215)   
    DRY( 15,  1)   DRY( 15,  2)   DRY( 15,  3)   DRY( 15,  4)   DRY( 15,  5)   
    DRY( 15,  6)   DRY( 15,  7)   DRY( 15,  8)   DRY( 15,  9)   DRY( 15, 10)   
    DRY( 15, 11)   DRY( 15, 12)   DRY( 15, 13)   DRY( 15, 14)   DRY( 15, 15)   
    DRY( 15, 16)   DRY( 15, 17)   DRY( 15, 18)   DRY( 15, 19)   DRY( 15, 20)   
    DRY( 15, 21)   DRY( 15, 22)   DRY( 15, 23)   DRY( 15, 24)   DRY( 15, 25)   
    DRY( 15, 26)   DRY( 15, 27)   DRY( 15, 28)   DRY( 15, 29)   DRY( 15, 30)   
    DRY( 15, 31)   DRY( 15, 32)   DRY( 15, 33)   DRY( 15, 34)   DRY( 15, 35)   
    DRY( 15, 36)   DRY( 15, 37)   DRY( 15, 38)   DRY( 15, 39)   DRY( 15, 40)   
    DRY( 15, 41)   DRY( 15, 42)   DRY( 15, 43)   DRY( 15, 44)   DRY( 15, 45)   
    DRY( 15, 46)   DRY( 15, 47)   DRY( 15, 48)   DRY( 15, 49)   DRY( 15, 50)   
    DRY( 15, 51)   DRY( 15, 52)   DRY( 15, 53)   DRY( 15, 54)   DRY( 15, 55)   
    DRY( 15, 56)   DRY( 15, 57)   DRY( 15, 58)   DRY( 15, 59)   DRY( 15, 60)   
    DRY( 15, 61)   DRY( 15, 62)   DRY( 15, 63)   DRY( 15, 64)   DRY( 15, 65)   
    DRY( 15, 66)   DRY( 15, 67)   DRY( 15, 68)   DRY( 15, 69)   DRY( 15, 70)   
    DRY( 15, 71)   DRY( 15, 72)   DRY( 15, 73)   DRY( 15, 74)   DRY( 15, 75)   
    DRY( 15, 76)   DRY( 15, 77)   DRY( 15, 78)   DRY( 15, 79)   DRY( 15, 80)   
    DRY( 15, 81)   DRY( 15, 82)   DRY( 15, 83)   DRY( 15, 84)   DRY( 15, 85)   
    DRY( 15, 86)   DRY( 15, 87)   DRY( 15, 88)   DRY( 15, 89)   DRY( 15, 90)   
    DRY( 15, 91)   DRY( 15, 92)   DRY( 15, 93)   DRY( 15, 94)   DRY( 15, 95)   
    DRY( 15, 96)   DRY( 15, 97)   DRY( 15, 98)   DRY( 15, 99)   DRY( 15,100)   
    DRY( 15,101)   DRY( 15,102)   DRY( 15,103)   DRY( 15,104)   DRY( 15,105)   
    DRY( 15,106)   DRY( 15,107)   DRY( 15,108)   DRY( 15,109)   DRY( 15,110)   
    DRY( 15,111)   DRY( 15,112)   DRY( 15,113)   DRY( 15,114)   DRY( 15,115)   
    DRY( 15,116)   DRY( 15,117)   DRY( 15,118)   DRY( 15,119)   DRY( 15,120)   
    DRY( 15,121)   DRY( 15,122)   DRY( 15,123)   DRY( 15,124)   DRY( 15,125)   
    DRY( 15,126)   DRY( 15,127)   DRY( 15,128)   DRY( 15,129)   DRY( 15,130)   
    DRY( 15,131)   DRY( 15,132)   DRY( 15,133)   DRY( 15,134)   DRY( 15,135)   
    DRY( 15,136)   DRY( 15,137)   DRY( 15,138)   DRY( 15,139)   DRY( 15,140)   
    DRY( 15,141)   DRY( 15,142)   DRY( 15,143)   DRY( 15,144)   DRY( 15,145)   
    DRY( 15,146)   DRY( 15,147)   DRY( 15,148)   DRY( 15,149)   DRY( 15,150)   
    DRY( 15,151)   DRY( 15,152)   DRY( 15,153)   DRY( 15,154)   DRY( 15,155)   
    DRY( 15,156)   DRY( 15,157)   DRY( 15,158)   DRY( 15,159)   DRY( 15,160)   
    DRY( 15,161)   DRY( 15,162)   DRY( 15,163)   DRY( 15,164)   DRY( 15,165)   
    DRY( 15,166)   DRY( 15,167)   DRY( 15,168)   DRY( 15,169)   DRY( 15,170)   
    DRY( 15,171)   DRY( 15,172)   DRY( 15,173)   DRY( 15,174)   DRY( 15,175)   
    DRY( 15,176)   DRY( 15,177)   DRY( 15,178)   DRY( 15,179)   DRY( 15,180)   
    DRY( 15,181)   DRY( 15,182)   DRY( 15,183)   DRY( 15,184)   DRY( 15,185)   
    DRY( 15,186)   DRY( 15,187)   DRY( 15,188)   DRY( 15,189)   DRY( 15,190)   
    DRY( 15,191)   DRY( 15,192)   DRY( 15,193)   DRY( 15,194)   DRY( 15,195)   
    DRY( 15,196)   DRY( 15,197)   DRY( 15,198)   DRY( 15,199)   DRY( 15,200)   
    DRY( 15,201)   DRY( 15,202)   DRY( 15,203)   DRY( 15,204)   DRY( 15,205)   
    DRY( 15,206)   DRY( 15,207)   DRY( 15,208)   DRY( 15,209)   DRY( 15,210)   
    DRY( 15,211)   DRY( 15,212)   DRY( 15,213)   DRY( 15,214)   DRY( 15,215)   
    DRY( 15,216)   DRY( 15,217)   DRY( 16,  1)   DRY( 16,  2)   DRY( 16,  3)   
    DRY( 16,  4)   DRY( 16,  5)   DRY( 16,  6)   DRY( 16,  7)   DRY( 16,  8)   
    DRY( 16,  9)   DRY( 16, 10)   DRY( 16, 11)   DRY( 16, 12)   DRY( 16, 13)   
    DRY( 16, 14)   DRY( 16, 15)   DRY( 16, 16)   DRY( 16, 17)   DRY( 16, 18)   
    DRY( 16, 19)   DRY( 16, 20)   DRY( 16, 21)   DRY( 16, 22)   DRY( 16, 23)   
    DRY( 16, 24)   DRY( 16, 25)   DRY( 16, 26)   DRY( 16, 27)   DRY( 16, 28)   
    DRY( 16, 29)   DRY( 16, 30)   DRY( 16, 31)   DRY( 16, 32)   DRY( 16, 33)   
    DRY( 16, 34)   DRY( 16, 35)   DRY( 16, 36)   DRY( 16, 37)   DRY( 16, 38)   
    DRY( 16, 39)   DRY( 16, 40)   DRY( 16, 41)   DRY( 16, 42)   DRY( 16, 43)   
    DRY( 16, 44)   DRY( 16, 45)   DRY( 16, 46)   DRY( 16, 47)   DRY( 16, 48)   
    DRY( 16, 49)   DRY( 16, 50)   DRY( 16, 51)   DRY( 16, 52)   DRY( 16, 53)   
    DRY( 16, 54)   DRY( 16, 55)   DRY( 16, 56)   DRY( 16, 57)   DRY( 16, 58)   
    DRY( 16, 59)   DRY( 16, 60)   DRY( 16, 61)   DRY( 16, 62)   DRY( 16, 63)   
    DRY( 16, 64)   DRY( 16, 65)   DRY( 16, 66)   DRY( 16, 67)   DRY( 16, 68)   
    DRY( 16, 69)   DRY( 16, 70)   DRY( 16, 71)   DRY( 16, 72)   DRY( 16, 73)   
    DRY( 16, 74)   DRY( 16, 75)   DRY( 16, 76)   DRY( 16, 77)   DRY( 16, 78)   
    DRY( 16, 79)   DRY( 16, 80)   DRY( 16, 81)   DRY( 16, 82)   DRY( 16, 83)   
    DRY( 16, 84)   DRY( 16, 85)   DRY( 16, 86)   DRY( 16, 87)   DRY( 16, 88)   
    DRY( 16, 89)   DRY( 16, 90)   DRY( 16, 91)   DRY( 16, 92)   DRY( 16, 93)   
    DRY( 16, 94)   DRY( 16, 95)   DRY( 16, 96)   DRY( 16, 97)   DRY( 16, 98)   
    DRY( 16, 99)   DRY( 16,100)   DRY( 16,101)   DRY( 16,102)   DRY( 16,103)   
    DRY( 16,104)   DRY( 16,105)   DRY( 16,106)   DRY( 16,107)   DRY( 16,108)   
    DRY( 16,109)   DRY( 16,110)   DRY( 16,111)   DRY( 16,112)   DRY( 16,113)   
    DRY( 16,114)   DRY( 16,115)   DRY( 16,116)   DRY( 16,117)   DRY( 16,118)   
    DRY( 16,119)   DRY( 16,120)   DRY( 16,121)   DRY( 16,122)   DRY( 16,123)   
    DRY( 16,124)   DRY( 16,125)   DRY( 16,126)   DRY( 16,127)   DRY( 16,128)   
    DRY( 16,129)   DRY( 16,130)   DRY( 16,131)   DRY( 16,132)   DRY( 16,133)   
    DRY( 16,134)   DRY( 16,135)   DRY( 16,136)   DRY( 16,137)   DRY( 16,138)   
    DRY( 16,139)   DRY( 16,140)   DRY( 16,141)   DRY( 16,142)   DRY( 16,143)   
    DRY( 16,144)   DRY( 16,145)   DRY( 16,146)   DRY( 16,147)   DRY( 16,148)   
    DRY( 16,149)   DRY( 16,150)   DRY( 16,151)   DRY( 16,152)   DRY( 16,153)   
    DRY( 16,154)   DRY( 16,155)   DRY( 16,156)   DRY( 16,157)   DRY( 16,158)   
    DRY( 16,159)   DRY( 16,160)   DRY( 16,161)   DRY( 16,162)   DRY( 16,163)   
    DRY( 16,164)   DRY( 16,165)   DRY( 16,166)   DRY( 16,167)   DRY( 16,168)   
    DRY( 16,169)   DRY( 16,170)   DRY( 16,171)   DRY( 16,172)   DRY( 16,173)   
    DRY( 16,174)   DRY( 16,175)   DRY( 16,176)   DRY( 16,177)   DRY( 16,178)   
    DRY( 16,179)   DRY( 16,180)   DRY( 16,181)   DRY( 16,182)   DRY( 16,183)   
    DRY( 16,184)   DRY( 16,185)   DRY( 16,186)   DRY( 16,187)   DRY( 16,188)   
    DRY( 16,189)   DRY( 16,190)   DRY( 16,191)   DRY( 16,192)   DRY( 16,193)   
    DRY( 16,194)   DRY( 16,195)   DRY( 16,196)   DRY( 16,197)   DRY( 16,198)   
    DRY( 16,199)   DRY( 16,200)   DRY( 16,201)   DRY( 16,202)   DRY( 16,203)   
    DRY( 16,204)   DRY( 16,205)   DRY( 16,206)   DRY( 16,207)   DRY( 16,208)   
    DRY( 16,209)   DRY( 16,210)   DRY( 16,211)   DRY( 16,212)   DRY( 16,213)   
    DRY( 16,214)   DRY( 16,215)   DRY( 16,216)   DRY( 16,217)   DRY( 16,218)   
    DRY( 16,219)   DRY( 16,220)   DRY( 17,  1)   DRY( 17,  2)   DRY( 17,  3)   
    DRY( 17,  4)   DRY( 17,  5)   DRY( 17,  6)   DRY( 17,  7)   DRY( 17,  8)   
    DRY( 17,  9)   DRY( 17, 10)   DRY( 17, 11)   DRY( 17, 12)   DRY( 17, 13)   
    DRY( 17, 14)   DRY( 17, 15)   DRY( 17, 16)   DRY( 17, 17)   DRY( 17, 18)   
    DRY( 17, 19)   DRY( 17, 20)   DRY( 17, 21)   DRY( 17, 22)   DRY( 17, 23)   
    DRY( 17, 24)   DRY( 17, 25)   DRY( 17, 26)   DRY( 17, 27)   DRY( 17, 28)   
    DRY( 17, 29)   DRY( 17, 30)   DRY( 17, 31)   DRY( 17, 32)   DRY( 17, 33)   
    DRY( 17, 34)   DRY( 17, 35)   DRY( 17, 36)   DRY( 17, 37)   DRY( 17, 38)   
    DRY( 17, 39)   DRY( 17, 40)   DRY( 17, 41)   DRY( 17, 42)   DRY( 17, 43)   
    DRY( 17, 44)   DRY( 17, 45)   DRY( 17, 46)   DRY( 17, 47)   DRY( 17, 48)   
    DRY( 17, 49)   DRY( 17, 50)   DRY( 17, 51)   DRY( 17, 52)   DRY( 17, 53)   
    DRY( 17, 54)   DRY( 17, 55)   DRY( 17, 56)   DRY( 17, 57)   DRY( 17, 58)   
    DRY( 17, 59)   DRY( 17, 60)   DRY( 17, 61)   DRY( 17, 62)   DRY( 17, 63)   
    DRY( 17, 64)   DRY( 17, 65)   DRY( 17, 66)   DRY( 17, 67)   DRY( 17, 68)   
    DRY( 17, 69)   DRY( 17, 70)   DRY( 17, 71)   DRY( 17, 72)   DRY( 17, 73)   
    DRY( 17, 74)   DRY( 17, 75)   DRY( 17, 76)   DRY( 17, 77)   DRY( 17, 78)   
    DRY( 17, 79)   DRY( 17, 80)   DRY( 17, 81)   DRY( 17, 82)   DRY( 17, 83)   
    DRY( 17, 84)   DRY( 17, 85)   DRY( 17, 86)   DRY( 17, 87)   DRY( 17, 88)   
    DRY( 17, 89)   DRY( 17, 90)   DRY( 17, 91)   DRY( 17, 92)   DRY( 17, 93)   
    DRY( 17, 94)   DRY( 17, 95)   DRY( 17, 96)   DRY( 17, 97)   DRY( 17, 98)   
    DRY( 17, 99)   DRY( 17,100)   DRY( 17,101)   DRY( 17,102)   DRY( 17,103)   
    DRY( 17,104)   DRY( 17,105)   DRY( 17,106)   DRY( 17,107)   DRY( 17,108)   
    DRY( 17,109)   DRY( 17,110)   DRY( 17,111)   DRY( 17,112)   DRY( 17,113)   
    DRY( 17,114)   DRY( 17,115)   DRY( 17,116)   DRY( 17,117)   DRY( 17,118)   
    DRY( 17,119)   DRY( 17,120)   DRY( 17,121)   DRY( 17,122)   DRY( 17,123)   
    DRY( 17,124)   DRY( 17,125)   DRY( 17,126)   DRY( 17,127)   DRY( 17,128)   
    DRY( 17,129)   DRY( 17,130)   DRY( 17,131)   DRY( 17,132)   DRY( 17,133)   
    DRY( 17,134)   DRY( 17,135)   DRY( 17,136)   DRY( 17,137)   DRY( 17,138)   
    DRY( 17,139)   DRY( 17,140)   DRY( 17,141)   DRY( 17,142)   DRY( 17,143)   
    DRY( 17,144)   DRY( 17,145)   DRY( 17,146)   DRY( 17,147)   DRY( 17,148)   
    DRY( 17,149)   DRY( 17,150)   DRY( 17,151)   DRY( 17,152)   DRY( 17,153)   
    DRY( 17,154)   DRY( 17,155)   DRY( 17,156)   DRY( 17,157)   DRY( 17,158)   
    DRY( 17,159)   DRY( 17,160)   DRY( 17,161)   DRY( 17,162)   DRY( 17,163)   
    DRY( 17,164)   DRY( 17,165)   DRY( 17,166)   DRY( 17,167)   DRY( 17,168)   
    DRY( 17,169)   DRY( 17,170)   DRY( 17,171)   DRY( 17,172)   DRY( 17,173)   
    DRY( 17,174)   DRY( 17,175)   DRY( 17,176)   DRY( 17,177)   DRY( 17,178)   
    DRY( 17,179)   DRY( 17,180)   DRY( 17,181)   DRY( 17,182)   DRY( 17,183)   
    DRY( 17,184)   DRY( 17,185)   DRY( 17,186)   DRY( 17,187)   DRY( 17,188)   
    DRY( 17,189)   DRY( 17,190)   DRY( 17,191)   DRY( 17,192)   DRY( 17,193)   
    DRY( 17,194)   DRY( 17,195)   DRY( 17,196)   DRY( 17,197)   DRY( 17,198)   
    DRY( 17,199)   DRY( 17,200)   DRY( 17,201)   DRY( 17,202)   DRY( 17,203)   
    DRY( 17,204)   DRY( 17,205)   DRY( 17,206)   DRY( 17,207)   DRY( 17,208)   
    DRY( 17,209)   DRY( 17,210)   DRY( 17,211)   DRY( 17,212)   DRY( 17,213)   
    DRY( 17,214)   DRY( 17,215)   DRY( 17,216)   DRY( 17,217)   DRY( 17,218)   
    DRY( 17,219)   DRY( 17,220)   DRY( 18,  1)   DRY( 18,  2)   DRY( 18,  3)   
    DRY( 18,  4)   DRY( 18,  5)   DRY( 18,  6)   DRY( 18,  7)   DRY( 18,  8)   
    DRY( 18,  9)   DRY( 18, 10)   DRY( 18, 11)   DRY( 18, 12)   DRY( 18, 13)   
    DRY( 18, 14)   DRY( 18, 15)   DRY( 18, 16)   DRY( 18, 17)   DRY( 18, 18)   
    DRY( 18, 19)   DRY( 18, 20)   DRY( 18, 21)   DRY( 18, 22)   DRY( 18, 23)   
    DRY( 18, 24)   DRY( 18, 25)   DRY( 18, 26)   DRY( 18, 27)   DRY( 18, 28)   
    DRY( 18, 29)   DRY( 18, 30)   DRY( 18, 31)   DRY( 18, 32)   DRY( 18, 33)   
    DRY( 18, 34)   DRY( 18, 35)   DRY( 18, 36)   DRY( 18, 37)   DRY( 18, 38)   
    DRY( 18, 39)   DRY( 18, 40)   DRY( 18, 41)   DRY( 18, 42)   DRY( 18, 43)   
    DRY( 18, 44)   DRY( 18, 45)   DRY( 18, 46)   DRY( 18, 47)   DRY( 18, 48)   
    DRY( 18, 49)   DRY( 18, 50)   DRY( 18, 51)   DRY( 18, 52)   DRY( 18, 53)   
    DRY( 18, 54)   DRY( 18, 55)   DRY( 18, 56)   DRY( 18, 57)   DRY( 18, 58)   
    DRY( 18, 59)   DRY( 18, 60)   DRY( 18, 61)   DRY( 18, 62)   DRY( 18, 63)   
    DRY( 18, 64)   DRY( 18, 65)   DRY( 18, 66)   DRY( 18, 67)   DRY( 18, 68)   
    DRY( 18, 69)   DRY( 18, 70)   DRY( 18, 71)   DRY( 18, 72)   DRY( 18, 73)   
    DRY( 18, 74)   DRY( 18, 75)   DRY( 18, 76)   DRY( 18, 77)   DRY( 18, 78)   
    DRY( 18, 79)   DRY( 18, 80)   DRY( 18, 81)   DRY( 18, 82)   DRY( 18, 83)   
    DRY( 18, 84)   DRY( 18, 85)   DRY( 18, 86)   DRY( 18, 87)   DRY( 18, 88)   
    DRY( 18, 89)   DRY( 18, 90)   DRY( 18, 91)   DRY( 18, 92)   DRY( 18, 93)   
    DRY( 18, 94)   DRY( 18, 95)   DRY( 18, 96)   DRY( 18, 97)   DRY( 18, 98)   
    DRY( 18, 99)   DRY( 18,100)   DRY( 18,101)   DRY( 18,102)   DRY( 18,103)   
    DRY( 18,104)   DRY( 18,105)   DRY( 18,106)   DRY( 18,107)   DRY( 18,108)   
    DRY( 18,109)   DRY( 18,110)   DRY( 18,111)   DRY( 18,112)   DRY( 18,113)   
    DRY( 18,114)   DRY( 18,115)   DRY( 18,116)   DRY( 18,117)   DRY( 18,118)   
    DRY( 18,119)   DRY( 18,120)   DRY( 18,121)   DRY( 18,122)   DRY( 18,123)   
    DRY( 18,124)   DRY( 18,125)   DRY( 18,126)   DRY( 18,127)   DRY( 18,128)   
    DRY( 18,129)   DRY( 18,130)   DRY( 18,131)   DRY( 18,132)   DRY( 18,133)   
    DRY( 18,134)   DRY( 18,135)   DRY( 18,136)   DRY( 18,137)   DRY( 18,138)   
    DRY( 18,139)   DRY( 18,140)   DRY( 18,141)   DRY( 18,142)   DRY( 18,143)   
    DRY( 18,144)   DRY( 18,145)   DRY( 18,146)   DRY( 18,147)   DRY( 18,148)   
    DRY( 18,149)   DRY( 18,150)   DRY( 18,151)   DRY( 18,152)   DRY( 18,153)   
    DRY( 18,154)   DRY( 18,155)   DRY( 18,156)   DRY( 18,157)   DRY( 18,158)   
    DRY( 18,159)   DRY( 18,160)   DRY( 18,161)   DRY( 18,162)   DRY( 18,163)   
    DRY( 18,164)   DRY( 18,165)   DRY( 18,166)   DRY( 18,167)   DRY( 18,168)   
    DRY( 18,169)   DRY( 18,170)   DRY( 18,171)   DRY( 18,172)   DRY( 18,173)   
    DRY( 18,174)   DRY( 18,175)   DRY( 18,176)   DRY( 18,177)   DRY( 18,178)   
    DRY( 18,179)   DRY( 18,180)   DRY( 18,181)   DRY( 18,182)   DRY( 18,183)   
    DRY( 18,184)   DRY( 18,185)   DRY( 18,186)   DRY( 18,187)   DRY( 18,188)   
    DRY( 18,189)   DRY( 18,190)   DRY( 18,191)   DRY( 18,192)   DRY( 18,193)   
    DRY( 18,194)   DRY( 18,195)   DRY( 18,196)   DRY( 18,197)   DRY( 18,198)   
    DRY( 18,199)   DRY( 18,200)   DRY( 18,201)   DRY( 18,202)   DRY( 18,203)   
    DRY( 18,204)   DRY( 18,205)   DRY( 18,206)   DRY( 18,207)   DRY( 18,208)   
    DRY( 18,209)   DRY( 18,210)   DRY( 18,211)   DRY( 18,212)   DRY( 18,213)   
    DRY( 18,214)   DRY( 18,215)   DRY( 18,216)   DRY( 18,217)   DRY( 18,218)   
    DRY( 18,219)   DRY( 18,220)   DRY( 19,  1)   DRY( 19,  2)   DRY( 19,  3)   
    DRY( 19,  4)   DRY( 19,  5)   DRY( 19,  6)   DRY( 19,  7)   DRY( 19,  8)   
    DRY( 19,  9)   DRY( 19, 10)   DRY( 19, 11)   DRY( 19, 12)   DRY( 19, 13)   
    DRY( 19, 14)   DRY( 19, 15)   DRY( 19, 16)   DRY( 19, 17)   DRY( 19, 18)   
    DRY( 19, 19)   DRY( 19, 20)   DRY( 19, 21)   DRY( 19, 22)   DRY( 19, 23)   
    DRY( 19, 24)   DRY( 19, 25)   DRY( 19, 26)   DRY( 19, 27)   DRY( 19, 28)   
    DRY( 19, 29)   DRY( 19, 30)   DRY( 19, 31)   DRY( 19, 32)   DRY( 19, 33)   
    DRY( 19, 34)   DRY( 19, 35)   DRY( 19, 36)   DRY( 19, 37)   DRY( 19, 38)   
    DRY( 19, 39)   DRY( 19, 40)   DRY( 19, 41)   DRY( 19, 42)   DRY( 19, 43)   
    DRY( 19, 44)   DRY( 19, 45)   DRY( 19, 46)   DRY( 19, 47)   DRY( 19, 48)   
    DRY( 19, 49)   DRY( 19, 50)   DRY( 19, 51)   DRY( 19, 52)   DRY( 19, 53)   
    DRY( 19, 54)   DRY( 19, 55)   DRY( 19, 56)   DRY( 19, 57)   DRY( 19, 58)   
    DRY( 19, 59)   DRY( 19, 60)   DRY( 19, 61)   DRY( 19, 62)   DRY( 19, 63)   
    DRY( 19, 64)   DRY( 19, 65)   DRY( 19, 66)   DRY( 19, 67)   DRY( 19, 68)   
    DRY( 19, 69)   DRY( 19, 70)   DRY( 19, 71)   DRY( 19, 72)   DRY( 19, 73)   
    DRY( 19, 74)   DRY( 19, 75)   DRY( 19, 76)   DRY( 19, 77)   DRY( 19, 78)   
    DRY( 19, 79)   DRY( 19, 80)   DRY( 19, 81)   DRY( 19, 82)   DRY( 19, 83)   
    DRY( 19, 84)   DRY( 19, 85)   DRY( 19, 86)   DRY( 19, 87)   DRY( 19, 88)   
    DRY( 19, 89)   DRY( 19, 90)   DRY( 19, 91)   DRY( 19, 92)   DRY( 19, 93)   
    DRY( 19, 94)   DRY( 19, 95)   DRY( 19, 96)   DRY( 19, 97)   DRY( 19, 98)   
    DRY( 19, 99)   DRY( 19,100)   DRY( 19,101)   DRY( 19,102)   DRY( 19,103)   
    DRY( 19,104)   DRY( 19,105)   DRY( 19,106)   DRY( 19,107)   DRY( 19,108)   
    DRY( 19,109)   DRY( 19,110)   DRY( 19,111)   DRY( 19,112)   DRY( 19,113)   
    DRY( 19,114)   DRY( 19,115)   DRY( 19,116)   DRY( 19,117)   DRY( 19,118)   
    DRY( 19,119)   DRY( 19,120)   DRY( 19,121)   DRY( 19,122)   DRY( 19,123)   
    DRY( 19,124)   DRY( 19,125)   DRY( 19,126)   DRY( 19,127)   DRY( 19,128)   
    DRY( 19,129)   DRY( 19,130)   DRY( 19,131)   DRY( 19,132)   DRY( 19,133)   
    DRY( 19,134)   DRY( 19,135)   DRY( 19,136)   DRY( 19,137)   DRY( 19,138)   
    DRY( 19,139)   DRY( 19,140)   DRY( 19,141)   DRY( 19,142)   DRY( 19,143)   
    DRY( 19,144)   DRY( 19,145)   DRY( 19,146)   DRY( 19,147)   DRY( 19,148)   
    DRY( 19,149)   DRY( 19,150)   DRY( 19,151)   DRY( 19,152)   DRY( 19,153)   
    DRY( 19,154)   DRY( 19,155)   DRY( 19,156)   DRY( 19,157)   DRY( 19,158)   
    DRY( 19,159)   DRY( 19,160)   DRY( 19,161)   DRY( 19,162)   DRY( 19,163)   
    DRY( 19,164)   DRY( 19,165)   DRY( 19,166)   DRY( 19,167)   DRY( 19,168)   
    DRY( 19,169)   DRY( 19,170)   DRY( 19,171)   DRY( 19,172)   DRY( 19,173)   
    DRY( 19,174)   DRY( 19,175)   DRY( 19,176)   DRY( 19,177)   DRY( 19,178)   
    DRY( 19,179)   DRY( 19,180)   DRY( 19,181)   DRY( 19,182)   DRY( 19,183)   
    DRY( 19,184)   DRY( 19,185)   DRY( 19,186)   DRY( 19,187)   DRY( 19,188)   
    DRY( 19,189)   DRY( 19,190)   DRY( 19,191)   DRY( 19,192)   DRY( 19,193)   
    DRY( 19,194)   DRY( 19,195)   DRY( 19,196)   DRY( 19,197)   DRY( 19,198)   
    DRY( 19,199)   DRY( 19,200)   DRY( 19,201)   DRY( 19,202)   DRY( 19,203)   
    DRY( 19,204)   DRY( 19,205)   DRY( 19,206)   DRY( 19,207)   DRY( 19,208)   
    DRY( 19,209)   DRY( 19,210)   DRY( 19,211)   DRY( 19,212)   DRY( 19,213)   
    DRY( 19,214)   DRY( 19,215)   DRY( 19,216)   DRY( 19,217)   DRY( 19,218)   
    DRY( 19,219)   DRY( 19,220)   DRY( 20,  1)   DRY( 20,  2)   DRY( 20,  3)   
    DRY( 20,  4)   DRY( 20,  5)   DRY( 20,  6)   DRY( 20,  7)   DRY( 20,  8)   
    DRY( 20,  9)   DRY( 20, 10)   DRY( 20, 11)   DRY( 20, 12)   DRY( 20, 13)   
    DRY( 20, 14)   DRY( 20, 15)   DRY( 20, 16)   DRY( 20, 17)   DRY( 20, 18)   
    DRY( 20, 19)   DRY( 20, 20)   DRY( 20, 21)   DRY( 20, 22)   DRY( 20, 23)   
    DRY( 20, 24)   DRY( 20, 25)   DRY( 20, 26)   DRY( 20, 27)   DRY( 20, 28)   
    DRY( 20, 29)   DRY( 20, 30)   DRY( 20, 31)   DRY( 20, 32)   DRY( 20, 33)   
    DRY( 20, 34)   DRY( 20, 35)   DRY( 20, 36)   DRY( 20, 37)   DRY( 20, 38)   
    DRY( 20, 39)   DRY( 20, 40)   DRY( 20, 41)   DRY( 20, 42)   DRY( 20, 43)   
    DRY( 20, 44)   DRY( 20, 45)   DRY( 20, 46)   DRY( 20, 47)   DRY( 20, 48)   
    DRY( 20, 49)   DRY( 20, 50)   DRY( 20, 51)   DRY( 20, 52)   DRY( 20, 53)   
    DRY( 20, 54)   DRY( 20, 55)   DRY( 20, 56)   DRY( 20, 57)   DRY( 20, 58)   
    DRY( 20, 59)   DRY( 20, 60)   DRY( 20, 61)   DRY( 20, 62)   DRY( 20, 63)   
    DRY( 20, 64)   DRY( 20, 65)   DRY( 20, 66)   DRY( 20, 67)   DRY( 20, 68)   
    DRY( 20, 69)   DRY( 20, 70)   DRY( 20, 71)   DRY( 20, 72)   DRY( 20, 73)   
    DRY( 20, 74)   DRY( 20, 75)   DRY( 20, 76)   DRY( 20, 77)   DRY( 20, 78)   
    DRY( 20, 79)   DRY( 20, 80)   DRY( 20, 81)   DRY( 20, 82)   DRY( 20, 83)   
    DRY( 20, 84)   DRY( 20, 85)   DRY( 20, 86)   DRY( 20, 87)   DRY( 20, 88)   
    DRY( 20, 89)   DRY( 20, 90)   DRY( 20, 91)   DRY( 20, 92)   DRY( 20, 93)   
    DRY( 20, 94)   DRY( 20, 95)   DRY( 20, 96)   DRY( 20, 97)   DRY( 20, 98)   
    DRY( 20, 99)   DRY( 20,100)   DRY( 20,101)   DRY( 20,102)   DRY( 20,103)   
    DRY( 20,104)   DRY( 20,105)   DRY( 20,106)   DRY( 20,107)   DRY( 20,108)   
    DRY( 20,109)   DRY( 20,110)   DRY( 20,111)   DRY( 20,112)   DRY( 20,113)   
    DRY( 20,114)   DRY( 20,115)   DRY( 20,116)   DRY( 20,117)   DRY( 20,118)   
    DRY( 20,119)   DRY( 20,120)   DRY( 20,121)   DRY( 20,122)   DRY( 20,123)   
    DRY( 20,124)   DRY( 20,125)   DRY( 20,126)   DRY( 20,127)   DRY( 20,128)   
    DRY( 20,129)   DRY( 20,130)   DRY( 20,131)   DRY( 20,132)   DRY( 20,133)   
    DRY( 20,134)   DRY( 20,135)   DRY( 20,136)   DRY( 20,137)   DRY( 20,138)   
    DRY( 20,139)   DRY( 20,140)   DRY( 20,141)   DRY( 20,142)   DRY( 20,143)   
    DRY( 20,144)   DRY( 20,145)   DRY( 20,146)   DRY( 20,147)   DRY( 20,148)   
    DRY( 20,149)   DRY( 20,150)   DRY( 20,151)   DRY( 20,152)   DRY( 20,153)   
    DRY( 20,154)   DRY( 20,155)   DRY( 20,156)   DRY( 20,157)   DRY( 20,158)   
    DRY( 20,159)   DRY( 20,160)   DRY( 20,161)   DRY( 20,162)   DRY( 20,163)   
    DRY( 20,164)   DRY( 20,165)   DRY( 20,166)   DRY( 20,167)   DRY( 20,168)   
    DRY( 20,169)   DRY( 20,170)   DRY( 20,171)   DRY( 20,172)   DRY( 20,173)   
    DRY( 20,174)   DRY( 20,175)   DRY( 20,176)   DRY( 20,177)   DRY( 20,178)   
    DRY( 20,179)   DRY( 20,180)   DRY( 20,181)   DRY( 20,182)   DRY( 20,183)   
    DRY( 20,184)   DRY( 20,185)   DRY( 20,186)   DRY( 20,187)   DRY( 20,188)   
    DRY( 20,189)   DRY( 20,190)   DRY( 20,191)   DRY( 20,192)   DRY( 20,193)   
    DRY( 20,194)   DRY( 20,195)   DRY( 20,196)   DRY( 20,197)   DRY( 20,198)   
    DRY( 20,199)   DRY( 20,200)   DRY( 20,201)   DRY( 20,202)   DRY( 20,203)   
    DRY( 20,204)   DRY( 20,205)   DRY( 20,206)   DRY( 20,207)   DRY( 20,208)   
    DRY( 20,209)   DRY( 20,210)   DRY( 20,211)   DRY( 20,212)   DRY( 20,213)   
    DRY( 20,214)   DRY( 20,215)   DRY( 20,216)   DRY( 20,217)   DRY( 20,218)   
    DRY( 20,219)   DRY( 20,220)   DRY( 21,  1)   DRY( 21,  2)   DRY( 21,  3)   
    DRY( 21,  4)   DRY( 21,  5)   DRY( 21,  6)   DRY( 21,  7)   DRY( 21,  8)   
    DRY( 21,  9)   DRY( 21, 10)   DRY( 21, 11)   DRY( 21, 12)   DRY( 21, 13)   
    DRY( 21, 14)   DRY( 21, 15)   DRY( 21, 16)   DRY( 21, 17)   DRY( 21, 18)   
    DRY( 21, 19)   DRY( 21, 20)   DRY( 21, 21)   DRY( 21, 22)   DRY( 21, 23)   
    DRY( 21, 24)   DRY( 21, 25)   DRY( 21, 26)   DRY( 21, 27)   DRY( 21, 28)   
    DRY( 21, 29)   DRY( 21, 30)   DRY( 21, 31)   DRY( 21, 32)   DRY( 21, 33)   
    DRY( 21, 34)   DRY( 21, 35)   DRY( 21, 36)   DRY( 21, 37)   DRY( 21, 38)   
    DRY( 21, 39)   DRY( 21, 40)   DRY( 21, 41)   DRY( 21, 42)   DRY( 21, 43)   
    DRY( 21, 44)   DRY( 21, 45)   DRY( 21, 46)   DRY( 21, 47)   DRY( 21, 48)   
    DRY( 21, 49)   DRY( 21, 50)   DRY( 21, 51)   DRY( 21, 52)   DRY( 21, 53)   
    DRY( 21, 54)   DRY( 21, 55)   DRY( 21, 56)   DRY( 21, 57)   DRY( 21, 58)   
    DRY( 21, 59)   DRY( 21, 60)   DRY( 21, 61)   DRY( 21, 62)   DRY( 21, 63)   
    DRY( 21, 64)   DRY( 21, 65)   DRY( 21, 66)   DRY( 21, 67)   DRY( 21, 68)   
    DRY( 21, 69)   DRY( 21, 70)   DRY( 21, 71)   DRY( 21, 72)   DRY( 21, 73)   
    DRY( 21, 74)   DRY( 21, 75)   DRY( 21, 76)   DRY( 21, 77)   DRY( 21, 78)   
    DRY( 21, 79)   DRY( 21, 80)   DRY( 21, 81)   DRY( 21, 82)   DRY( 21, 83)   
    DRY( 21, 84)   DRY( 21, 85)   DRY( 21, 86)   DRY( 21, 87)   DRY( 21, 88)   
    DRY( 21, 89)   DRY( 21, 90)   DRY( 21, 91)   DRY( 21, 92)   DRY( 21, 93)   
    DRY( 21, 94)   DRY( 21, 95)   DRY( 21, 96)   DRY( 21, 97)   DRY( 21, 98)   
    DRY( 21, 99)   DRY( 21,100)   DRY( 21,101)   DRY( 21,102)   DRY( 21,103)   
    DRY( 21,104)   DRY( 21,105)   DRY( 21,106)   DRY( 21,107)   DRY( 21,108)   
    DRY( 21,109)   DRY( 21,110)   DRY( 21,111)   DRY( 21,112)   DRY( 21,113)   
    DRY( 21,114)   DRY( 21,115)   DRY( 21,116)   DRY( 21,117)   DRY( 21,118)   
    DRY( 21,119)   DRY( 21,120)   DRY( 21,121)   DRY( 21,122)   DRY( 21,123)   
    DRY( 21,124)   DRY( 21,125)   DRY( 21,126)   DRY( 21,127)   DRY( 21,128)   
    DRY( 21,129)   DRY( 21,130)   DRY( 21,131)   DRY( 21,132)   DRY( 21,133)   
    DRY( 21,134)   DRY( 21,135)   DRY( 21,136)   DRY( 21,137)   DRY( 21,138)   
    DRY( 21,139)   DRY( 21,140)   DRY( 21,141)   DRY( 21,142)   DRY( 21,143)   
    DRY( 21,144)   DRY( 21,145)   DRY( 21,146)   DRY( 21,147)   DRY( 21,148)   
    DRY( 21,149)   DRY( 21,150)   DRY( 21,151)   DRY( 21,152)   DRY( 21,153)   
    DRY( 21,154)   DRY( 21,155)   DRY( 21,156)   DRY( 21,157)   DRY( 21,158)   
    DRY( 21,159)   DRY( 21,160)   DRY( 21,161)   DRY( 21,162)   DRY( 21,163)   
    DRY( 21,164)   DRY( 21,165)   DRY( 21,166)   DRY( 21,167)   DRY( 21,168)   
    DRY( 21,169)   DRY( 21,170)   DRY( 21,171)   DRY( 21,172)   DRY( 21,173)   
    DRY( 21,174)   DRY( 21,175)   DRY( 21,176)   DRY( 21,177)   DRY( 21,178)   
    DRY( 21,179)   DRY( 21,180)   DRY( 21,181)   DRY( 21,182)   DRY( 21,183)   
    DRY( 21,184)   DRY( 21,185)   DRY( 21,186)   DRY( 21,187)   DRY( 21,188)   
    DRY( 21,189)   DRY( 21,190)   DRY( 21,191)   DRY( 21,192)   DRY( 21,193)   
    DRY( 21,194)   DRY( 21,195)   DRY( 21,196)   DRY( 21,197)   DRY( 21,198)   
    DRY( 21,199)   DRY( 21,200)   DRY( 21,201)   DRY( 21,202)   DRY( 21,203)   
    DRY( 21,204)   DRY( 21,205)   DRY( 21,206)   DRY( 21,207)   DRY( 21,208)   
    DRY( 21,209)   DRY( 21,210)   DRY( 21,211)   DRY( 21,212)   DRY( 21,213)   
    DRY( 21,214)   DRY( 21,215)   DRY( 21,216)   DRY( 21,217)   DRY( 21,218)   
    DRY( 21,219)   DRY( 21,220)   DRY( 22,  1)   DRY( 22,  2)   DRY( 22,  3)   
    DRY( 22,  4)   DRY( 22,  5)   DRY( 22,  6)   DRY( 22,  7)   DRY( 22,  8)   
    DRY( 22,  9)   DRY( 22, 10)   DRY( 22, 11)   DRY( 22, 12)   DRY( 22, 13)   
    DRY( 22, 14)   DRY( 22, 15)   DRY( 22, 16)   DRY( 22, 17)   DRY( 22, 18)   
    DRY( 22, 19)   DRY( 22, 20)   DRY( 22, 21)   DRY( 22, 22)   DRY( 22, 23)   
    DRY( 22, 24)   DRY( 22, 25)   DRY( 22, 26)   DRY( 22, 27)   DRY( 22, 28)   
    DRY( 22, 29)   DRY( 22, 30)   DRY( 22, 31)   DRY( 22, 32)   DRY( 22, 33)   
    DRY( 22, 34)   DRY( 22, 35)   DRY( 22, 36)   DRY( 22, 37)   DRY( 22, 38)   
    DRY( 22, 39)   DRY( 22, 40)   DRY( 22, 41)   DRY( 22, 42)   DRY( 22, 43)   
    DRY( 22, 44)   DRY( 22, 45)   DRY( 22, 46)   DRY( 22, 47)   DRY( 22, 48)   
    DRY( 22, 49)   DRY( 22, 50)   DRY( 22, 51)   DRY( 22, 52)   DRY( 22, 53)   
    DRY( 22, 54)   DRY( 22, 55)   DRY( 22, 56)   DRY( 22, 57)   DRY( 22, 58)   
    DRY( 22, 59)   DRY( 22, 60)   DRY( 22, 61)   DRY( 22, 62)   DRY( 22, 63)   
    DRY( 22, 64)   DRY( 22, 65)   DRY( 22, 66)   DRY( 22, 67)   DRY( 22, 68)   
    DRY( 22, 69)   DRY( 22, 70)   DRY( 22, 71)   DRY( 22, 72)   DRY( 22, 73)   
    DRY( 22, 74)   DRY( 22, 75)   DRY( 22, 76)   DRY( 22, 77)   DRY( 22, 78)   
    DRY( 22, 79)   DRY( 22, 80)   DRY( 22, 81)   DRY( 22, 82)   DRY( 22, 83)   
    DRY( 22, 84)   DRY( 22, 85)   DRY( 22, 86)   DRY( 22, 87)   DRY( 22, 88)   
    DRY( 22, 89)   DRY( 22, 90)   DRY( 22, 91)   DRY( 22, 92)   DRY( 22, 93)   
    DRY( 22, 94)   DRY( 22, 95)   DRY( 22, 96)   DRY( 22, 97)   DRY( 22, 98)   
    DRY( 22, 99)   DRY( 22,100)   DRY( 22,101)   DRY( 22,102)   DRY( 22,103)   
    DRY( 22,104)   DRY( 22,105)   DRY( 22,106)   DRY( 22,107)   DRY( 22,108)   
    DRY( 22,109)   DRY( 22,110)   DRY( 22,111)   DRY( 22,112)   DRY( 22,113)   
    DRY( 22,114)   DRY( 22,115)   DRY( 22,116)   DRY( 22,117)   DRY( 22,118)   
    DRY( 22,119)   DRY( 22,120)   DRY( 22,121)   DRY( 22,122)   DRY( 22,123)   
    DRY( 22,124)   DRY( 22,125)   DRY( 22,126)   DRY( 22,127)   DRY( 22,128)   
    DRY( 22,129)   DRY( 22,130)   DRY( 22,131)   DRY( 22,132)   DRY( 22,133)   
    DRY( 22,134)   DRY( 22,135)   DRY( 22,136)   DRY( 22,137)   DRY( 22,138)   
    DRY( 22,139)   DRY( 22,140)   DRY( 22,141)   DRY( 22,142)   DRY( 22,143)   
    DRY( 22,144)   DRY( 22,145)   DRY( 22,146)   DRY( 22,147)   DRY( 22,148)   
    DRY( 22,149)   DRY( 22,150)   DRY( 22,151)   DRY( 22,152)   DRY( 22,153)   
    DRY( 22,154)   DRY( 22,155)   DRY( 22,156)   DRY( 22,157)   DRY( 22,158)   
    DRY( 22,159)   DRY( 22,160)   DRY( 22,161)   DRY( 22,162)   DRY( 22,163)   
    DRY( 22,164)   DRY( 22,165)   DRY( 22,166)   DRY( 22,167)   DRY( 22,168)   
    DRY( 22,169)   DRY( 22,170)   DRY( 22,171)   DRY( 22,172)   DRY( 22,173)   
    DRY( 22,174)   DRY( 22,175)   DRY( 22,176)   DRY( 22,177)   DRY( 22,178)   
    DRY( 22,179)   DRY( 22,180)   DRY( 22,181)   DRY( 22,182)   DRY( 22,183)   
    DRY( 22,184)   DRY( 22,185)   DRY( 22,186)   DRY( 22,187)   DRY( 22,188)   
    DRY( 22,189)   DRY( 22,190)   DRY( 22,191)   DRY( 22,192)   DRY( 22,193)   
    DRY( 22,194)   DRY( 22,195)   DRY( 22,196)   DRY( 22,197)   DRY( 22,198)   
    DRY( 22,199)   DRY( 22,200)   DRY( 22,201)   DRY( 22,202)   DRY( 22,203)   
    DRY( 22,204)   DRY( 22,205)   DRY( 22,206)   DRY( 22,207)   DRY( 22,208)   
    DRY( 22,209)   DRY( 22,210)   DRY( 22,211)   DRY( 22,212)   DRY( 22,213)   
    DRY( 22,214)   DRY( 22,215)   DRY( 22,216)   DRY( 22,217)   DRY( 22,218)   
    DRY( 22,219)   DRY( 22,220)   DRY( 23,  1)   DRY( 23,  2)   DRY( 23,  3)   
    DRY( 23,  4)   DRY( 23,  5)   DRY( 23,  6)   DRY( 23,  7)   DRY( 23,  8)   
    DRY( 23,  9)   DRY( 23, 10)   DRY( 23, 11)   DRY( 23, 12)   DRY( 23, 13)   
    DRY( 23, 14)   DRY( 23, 15)   DRY( 23, 16)   DRY( 23, 17)   DRY( 23, 18)   
    DRY( 23, 19)   DRY( 23, 20)   DRY( 23, 21)   DRY( 23, 22)   DRY( 23, 23)   
    DRY( 23, 24)   DRY( 23, 25)   DRY( 23, 26)   DRY( 23, 27)   DRY( 23, 28)   
    DRY( 23, 29)   DRY( 23, 30)   DRY( 23, 31)   DRY( 23, 32)   DRY( 23, 33)   
    DRY( 23, 34)   DRY( 23, 35)   DRY( 23, 36)   DRY( 23, 37)   DRY( 23, 38)   
    DRY( 23, 39)   DRY( 23, 40)   DRY( 23, 41)   DRY( 23, 42)   DRY( 23, 43)   
    DRY( 23, 44)   DRY( 23, 45)   DRY( 23, 46)   DRY( 23, 47)   DRY( 23, 48)   
    DRY( 23, 49)   DRY( 23, 50)   DRY( 23, 51)   DRY( 23, 52)   DRY( 23, 53)   
    DRY( 23, 54)   DRY( 23, 55)   DRY( 23, 56)   DRY( 23, 57)   DRY( 23, 58)   
    DRY( 23, 59)   DRY( 23, 60)   DRY( 23, 61)   DRY( 23, 62)   DRY( 23, 63)   
    DRY( 23, 64)   DRY( 23, 65)   DRY( 23, 66)   DRY( 23, 67)   DRY( 23, 68)   
    DRY( 23, 69)   DRY( 23, 70)   DRY( 23, 71)   DRY( 23, 72)   DRY( 23, 73)   
    DRY( 23, 74)   DRY( 23, 75)   DRY( 23, 76)   DRY( 23, 77)   DRY( 23, 78)   
    DRY( 23, 79)   DRY( 23, 80)   DRY( 23, 81)   DRY( 23, 82)   DRY( 23, 83)   
    DRY( 23, 84)   DRY( 23, 85)   DRY( 23, 86)   DRY( 23, 87)   DRY( 23, 88)   
    DRY( 23, 89)   DRY( 23, 90)   DRY( 23, 91)   DRY( 23, 92)   DRY( 23, 93)   
    DRY( 23, 94)   DRY( 23, 95)   DRY( 23, 96)   DRY( 23, 97)   DRY( 23, 98)   
    DRY( 23, 99)   DRY( 23,100)   DRY( 23,101)   DRY( 23,102)   DRY( 23,103)   
    DRY( 23,104)   DRY( 23,105)   DRY( 23,106)   DRY( 23,107)   DRY( 23,108)   
    DRY( 23,109)   DRY( 23,110)   DRY( 23,111)   DRY( 23,112)   DRY( 23,113)   
    DRY( 23,114)   DRY( 23,115)   DRY( 23,116)   DRY( 23,117)   DRY( 23,118)   
    DRY( 23,119)   DRY( 23,120)   DRY( 23,121)   DRY( 23,122)   DRY( 23,123)   
    DRY( 23,124)   DRY( 23,125)   DRY( 23,126)   DRY( 23,127)   DRY( 23,128)   
    DRY( 23,129)   DRY( 23,130)   DRY( 23,131)   DRY( 23,132)   DRY( 23,133)   
    DRY( 23,134)   DRY( 23,135)   DRY( 23,136)   DRY( 23,137)   DRY( 23,138)   
    DRY( 23,139)   DRY( 23,140)   DRY( 23,141)   DRY( 23,142)   DRY( 23,143)   
    DRY( 23,144)   DRY( 23,145)   DRY( 23,146)   DRY( 23,147)   DRY( 23,148)   
    DRY( 23,149)   DRY( 23,150)   DRY( 23,151)   DRY( 23,152)   DRY( 23,153)   
    DRY( 23,154)   DRY( 23,155)   DRY( 23,156)   DRY( 23,157)   DRY( 23,158)   
    DRY( 23,159)   DRY( 23,160)   DRY( 23,161)   DRY( 23,162)   DRY( 23,163)   
    DRY( 23,164)   DRY( 23,165)   DRY( 23,166)   DRY( 23,167)   DRY( 23,168)   
    DRY( 23,169)   DRY( 23,170)   DRY( 23,171)   DRY( 23,172)   DRY( 23,173)   
    DRY( 23,174)   DRY( 23,175)   DRY( 23,176)   DRY( 23,177)   DRY( 23,178)   
    DRY( 23,179)   DRY( 23,180)   DRY( 23,181)   DRY( 23,182)   DRY( 23,183)   
    DRY( 23,184)   DRY( 23,185)   DRY( 23,186)   DRY( 23,187)   DRY( 23,188)   
    DRY( 23,189)   DRY( 23,190)   DRY( 23,191)   DRY( 23,192)   DRY( 23,193)   
    DRY( 23,194)   DRY( 23,195)   DRY( 23,196)   DRY( 23,197)   DRY( 23,198)   
    DRY( 23,199)   DRY( 23,200)   DRY( 23,201)   DRY( 23,202)   DRY( 23,203)   
    DRY( 23,204)   DRY( 23,205)   DRY( 23,206)   DRY( 23,207)   DRY( 23,208)   
    DRY( 23,209)   DRY( 23,210)   DRY( 23,211)   DRY( 23,212)   DRY( 23,213)   
    DRY( 23,214)   DRY( 23,215)   DRY( 23,216)   DRY( 23,217)   DRY( 23,218)   
    DRY( 23,219)   DRY( 23,220)   DRY( 24,  1)   DRY( 24,  2)   DRY( 24,  3)   
    DRY( 24,  4)   DRY( 24,  5)   DRY( 24,  6)   DRY( 24,  7)   DRY( 24,  8)   
    DRY( 24,  9)   DRY( 24, 10)   DRY( 24, 11)   DRY( 24, 12)   DRY( 24, 13)   
    DRY( 24, 14)   DRY( 24, 15)   DRY( 24, 16)   DRY( 24, 17)   DRY( 24, 18)   
    DRY( 24, 19)   DRY( 24, 20)   DRY( 24, 21)   DRY( 24, 22)   DRY( 24, 23)   
    DRY( 24, 24)   DRY( 24, 25)   DRY( 24, 26)   DRY( 24, 27)   DRY( 24, 28)   
    DRY( 24, 29)   DRY( 24, 30)   DRY( 24, 31)   DRY( 24, 32)   DRY( 24, 33)   
    DRY( 24, 34)   DRY( 24, 35)   DRY( 24, 36)   DRY( 24, 37)   DRY( 24, 38)   
    DRY( 24, 39)   DRY( 24, 40)   DRY( 24, 41)   DRY( 24, 42)   DRY( 24, 43)   
    DRY( 24, 44)   DRY( 24, 45)   DRY( 24, 46)   DRY( 24, 47)   DRY( 24, 48)   
    DRY( 24, 49)   DRY( 24, 50)   DRY( 24, 51)   DRY( 24, 52)   DRY( 24, 53)   
    DRY( 24, 54)   DRY( 24, 55)   DRY( 24, 56)   DRY( 24, 57)   DRY( 24, 58)   
    DRY( 24, 59)   DRY( 24, 60)   DRY( 24, 61)   DRY( 24, 62)   DRY( 24, 63)   
    DRY( 24, 64)   DRY( 24, 65)   DRY( 24, 66)   DRY( 24, 67)   DRY( 24, 68)   
    DRY( 24, 69)   DRY( 24, 70)   DRY( 24, 71)   DRY( 24, 72)   DRY( 24, 73)   
    DRY( 24, 74)   DRY( 24, 75)   DRY( 24, 76)   DRY( 24, 77)   DRY( 24, 78)   
    DRY( 24, 79)   DRY( 24, 80)   DRY( 24, 81)   DRY( 24, 82)   DRY( 24, 83)   
    DRY( 24, 84)   DRY( 24, 85)   DRY( 24, 86)   DRY( 24, 87)   DRY( 24, 88)   
    DRY( 24, 89)   DRY( 24, 90)   DRY( 24, 91)   DRY( 24, 92)   DRY( 24, 93)   
    DRY( 24, 94)   DRY( 24, 95)   DRY( 24, 96)   DRY( 24, 97)   DRY( 24, 98)   
    DRY( 24, 99)   DRY( 24,100)   DRY( 24,101)   DRY( 24,102)   DRY( 24,103)   
    DRY( 24,104)   DRY( 24,105)   DRY( 24,106)   DRY( 24,107)   DRY( 24,108)   
    DRY( 24,109)   DRY( 24,110)   DRY( 24,111)   DRY( 24,112)   DRY( 24,113)   
    DRY( 24,114)   DRY( 24,115)   DRY( 24,116)   DRY( 24,117)   DRY( 24,118)   
    DRY( 24,119)   DRY( 24,120)   DRY( 24,121)   DRY( 24,122)   DRY( 24,123)   
    DRY( 24,124)   DRY( 24,125)   DRY( 24,126)   DRY( 24,127)   DRY( 24,128)   
    DRY( 24,129)   DRY( 24,130)   DRY( 24,131)   DRY( 24,132)   DRY( 24,133)   
    DRY( 24,134)   DRY( 24,135)   DRY( 24,136)   DRY( 24,137)   DRY( 24,138)   
    DRY( 24,139)   DRY( 24,140)   DRY( 24,141)   DRY( 24,142)   DRY( 24,143)   
    DRY( 24,144)   DRY( 24,145)   DRY( 24,146)   DRY( 24,147)   DRY( 24,148)   
    DRY( 24,149)   DRY( 24,150)   DRY( 24,151)   DRY( 24,152)   DRY( 24,153)   
    DRY( 24,154)   DRY( 24,155)   DRY( 24,156)   DRY( 24,157)   DRY( 24,158)   
    DRY( 24,159)   DRY( 24,160)   DRY( 24,161)   DRY( 24,162)   DRY( 24,163)   
    DRY( 24,164)   DRY( 24,165)   DRY( 24,166)   DRY( 24,167)   DRY( 24,168)   
    DRY( 24,169)   DRY( 24,170)   DRY( 24,171)   DRY( 24,172)   DRY( 24,173)   
    DRY( 24,174)   DRY( 24,175)   DRY( 24,176)   DRY( 24,177)   DRY( 24,178)   
    DRY( 24,179)   DRY( 24,180)   DRY( 24,181)   DRY( 24,182)   DRY( 24,183)   
    DRY( 24,184)   DRY( 24,185)   DRY( 24,186)   DRY( 24,187)   DRY( 24,188)   
    DRY( 24,189)   DRY( 24,190)   DRY( 24,191)   DRY( 24,192)   DRY( 24,193)   
    DRY( 24,194)   DRY( 24,195)   DRY( 24,196)   DRY( 24,197)   DRY( 24,198)   
    DRY( 24,199)   DRY( 24,200)   DRY( 24,201)   DRY( 24,202)   DRY( 24,203)   
    DRY( 24,204)   DRY( 24,205)   DRY( 24,206)   DRY( 24,207)   DRY( 24,208)   
    DRY( 24,209)   DRY( 24,210)   DRY( 24,211)   DRY( 24,212)   DRY( 24,213)   
    DRY( 24,214)   DRY( 24,215)   DRY( 24,216)   DRY( 24,217)   DRY( 24,218)   
    DRY( 24,219)   DRY( 24,220)   DRY( 25,  1)   DRY( 25,  2)   DRY( 25,  3)   
    DRY( 25,  4)   DRY( 25,  5)   DRY( 25,  6)   DRY( 25,  7)   DRY( 25,  8)   
    DRY( 25,  9)   DRY( 25, 10)   DRY( 25, 11)   DRY( 25, 12)   DRY( 25, 13)   
    DRY( 25, 14)   DRY( 25, 15)   DRY( 25, 16)   DRY( 25, 17)   DRY( 25, 18)   
    DRY( 25, 19)   DRY( 25, 20)   DRY( 25, 21)   DRY( 25, 22)   DRY( 25, 23)   
    DRY( 25, 24)   DRY( 25, 25)   DRY( 25, 26)   DRY( 25, 27)   DRY( 25, 28)   
    DRY( 25, 29)   DRY( 25, 30)   DRY( 25, 31)   DRY( 25, 32)   DRY( 25, 33)   
    DRY( 25, 34)   DRY( 25, 35)   DRY( 25, 36)   DRY( 25, 37)   DRY( 25, 38)   
    DRY( 25, 39)   DRY( 25, 40)   DRY( 25, 41)   DRY( 25, 42)   DRY( 25, 43)   
    DRY( 25, 44)   DRY( 25, 45)   DRY( 25, 46)   DRY( 25, 47)   DRY( 25, 48)   
    DRY( 25, 49)   DRY( 25, 50)   DRY( 25, 51)   DRY( 25, 52)   DRY( 25, 53)   
    DRY( 25, 54)   DRY( 25, 55)   DRY( 25, 56)   DRY( 25, 57)   DRY( 25, 58)   
    DRY( 25, 59)   DRY( 25, 60)   DRY( 25, 61)   DRY( 25, 62)   DRY( 25, 63)   
    DRY( 25, 64)   DRY( 25, 65)   DRY( 25, 66)   DRY( 25, 67)   DRY( 25, 68)   
    DRY( 25, 69)   DRY( 25, 70)   DRY( 25, 71)   DRY( 25, 72)   DRY( 25, 73)   
    DRY( 25, 74)   DRY( 25, 75)   DRY( 25, 76)   DRY( 25, 77)   DRY( 25, 78)   
    DRY( 25, 79)   DRY( 25, 80)   DRY( 25, 81)   DRY( 25, 82)   DRY( 25, 83)   
    DRY( 25, 84)   DRY( 25, 85)   DRY( 25, 86)   DRY( 25, 87)   DRY( 25, 88)   
    DRY( 25, 89)   DRY( 25, 90)   DRY( 25, 91)   DRY( 25, 92)   DRY( 25, 93)   
    DRY( 25, 94)   DRY( 25, 95)   DRY( 25, 96)   DRY( 25, 97)   DRY( 25, 98)   
    DRY( 25, 99)   DRY( 25,100)   DRY( 25,101)   DRY( 25,102)   DRY( 25,103)   
    DRY( 25,104)   DRY( 25,105)   DRY( 25,106)   DRY( 25,107)   DRY( 25,108)   
    DRY( 25,109)   DRY( 25,110)   DRY( 25,111)   DRY( 25,112)   DRY( 25,113)   
    DRY( 25,114)   DRY( 25,115)   DRY( 25,116)   DRY( 25,117)   DRY( 25,118)   
    DRY( 25,119)   DRY( 25,120)   DRY( 25,121)   DRY( 25,122)   DRY( 25,123)   
    DRY( 25,124)   DRY( 25,125)   DRY( 25,126)   DRY( 25,127)   DRY( 25,128)   
    DRY( 25,129)   DRY( 25,130)   DRY( 25,131)   DRY( 25,132)   DRY( 25,133)   
    DRY( 25,134)   DRY( 25,135)   DRY( 25,136)   DRY( 25,137)   DRY( 25,138)   
    DRY( 25,139)   DRY( 25,140)   DRY( 25,141)   DRY( 25,142)   DRY( 25,143)   
    DRY( 25,144)   DRY( 25,145)   DRY( 25,146)   DRY( 25,147)   DRY( 25,148)   
    DRY( 25,149)   DRY( 25,150)   DRY( 25,151)   DRY( 25,152)   DRY( 25,153)   
    DRY( 25,154)   DRY( 25,155)   DRY( 25,156)   DRY( 25,157)   DRY( 25,158)   
    DRY( 25,159)   DRY( 25,160)   DRY( 25,161)   DRY( 25,162)   DRY( 25,163)   
    DRY( 25,164)   DRY( 25,165)   DRY( 25,166)   DRY( 25,167)   DRY( 25,168)   
    DRY( 25,169)   DRY( 25,170)   DRY( 25,171)   DRY( 25,172)   DRY( 25,173)   
    DRY( 25,174)   DRY( 25,175)   DRY( 25,176)   DRY( 25,177)   DRY( 25,178)   
    DRY( 25,179)   DRY( 25,180)   DRY( 25,181)   DRY( 25,182)   DRY( 25,183)   
    DRY( 25,184)   DRY( 25,185)   DRY( 25,186)   DRY( 25,187)   DRY( 25,188)   
    DRY( 25,189)   DRY( 25,190)   DRY( 25,191)   DRY( 25,192)   DRY( 25,193)   
    DRY( 25,194)   DRY( 25,195)   DRY( 25,196)   DRY( 25,197)   DRY( 25,198)   
    DRY( 25,199)   DRY( 25,200)   DRY( 25,201)   DRY( 25,202)   DRY( 25,203)   
    DRY( 25,204)   DRY( 25,205)   DRY( 25,206)   DRY( 25,207)   DRY( 25,208)   
    DRY( 25,209)   DRY( 25,210)   DRY( 25,211)   DRY( 25,212)   DRY( 25,213)   
    DRY( 25,214)   DRY( 25,215)   DRY( 25,216)   DRY( 25,217)   DRY( 25,218)   
    DRY( 25,219)   DRY( 25,220)   DRY( 26,  1)   DRY( 26,  2)   DRY( 26,  3)   
    DRY( 26,  4)   DRY( 26,  5)   DRY( 26,  6)   DRY( 26,  7)   DRY( 26,  8)   
    DRY( 26,  9)   DRY( 26, 10)   DRY( 26, 11)   DRY( 26, 12)   DRY( 26, 13)   
    DRY( 26, 14)   DRY( 26, 15)   DRY( 26, 16)   DRY( 26, 17)   DRY( 26, 18)   
    DRY( 26, 19)   DRY( 26, 20)   DRY( 26, 21)   DRY( 26, 22)   DRY( 26, 23)   
    DRY( 26, 24)   DRY( 26, 25)   DRY( 26, 26)   DRY( 26, 27)   DRY( 26, 28)   
    DRY( 26, 29)   DRY( 26, 30)   DRY( 26, 31)   DRY( 26, 32)   DRY( 26, 33)   
    DRY( 26, 34)   DRY( 26, 35)   DRY( 26, 36)   DRY( 26, 37)   DRY( 26, 38)   
    DRY( 26, 39)   DRY( 26, 40)   DRY( 26, 41)   DRY( 26, 42)   DRY( 26, 43)   
    DRY( 26, 44)   DRY( 26, 45)   DRY( 26, 46)   DRY( 26, 47)   DRY( 26, 48)   
    DRY( 26, 49)   DRY( 26, 50)   DRY( 26, 51)   DRY( 26, 52)   DRY( 26, 53)   
    DRY( 26, 54)   DRY( 26, 55)   DRY( 26, 56)   DRY( 26, 57)   DRY( 26, 58)   
    DRY( 26, 59)   DRY( 26, 60)   DRY( 26, 61)   DRY( 26, 62)   DRY( 26, 63)   
    DRY( 26, 64)   DRY( 26, 65)   DRY( 26, 66)   DRY( 26, 67)   DRY( 26, 68)   
    DRY( 26, 69)   DRY( 26, 70)   DRY( 26, 71)   DRY( 26, 72)   DRY( 26, 73)   
    DRY( 26, 74)   DRY( 26, 75)   DRY( 26, 76)   DRY( 26, 77)   DRY( 26, 78)   
    DRY( 26, 79)   DRY( 26, 80)   DRY( 26, 81)   DRY( 26, 82)   DRY( 26, 83)   
    DRY( 26, 84)   DRY( 26, 85)   DRY( 26, 86)   DRY( 26, 87)   DRY( 26, 88)   
    DRY( 26, 89)   DRY( 26, 90)   DRY( 26, 91)   DRY( 26, 92)   DRY( 26, 93)   
    DRY( 26, 94)   DRY( 26, 95)   DRY( 26, 96)   DRY( 26, 97)   DRY( 26, 98)   
    DRY( 26, 99)   DRY( 26,100)   DRY( 26,101)   DRY( 26,102)   DRY( 26,103)   
    DRY( 26,104)   DRY( 26,105)   DRY( 26,106)   DRY( 26,107)   DRY( 26,108)   
    DRY( 26,109)   DRY( 26,110)   DRY( 26,111)   DRY( 26,112)   DRY( 26,113)   
    DRY( 26,114)   DRY( 26,115)   DRY( 26,116)   DRY( 26,117)   DRY( 26,118)   
    DRY( 26,119)   DRY( 26,120)   DRY( 26,121)   DRY( 26,122)   DRY( 26,123)   
    DRY( 26,124)   DRY( 26,125)   DRY( 26,126)   DRY( 26,127)   DRY( 26,128)   
    DRY( 26,129)   DRY( 26,130)   DRY( 26,131)   DRY( 26,132)   DRY( 26,133)   
    DRY( 26,134)   DRY( 26,135)   DRY( 26,136)   DRY( 26,137)   DRY( 26,138)   
    DRY( 26,139)   DRY( 26,140)   DRY( 26,141)   DRY( 26,142)   DRY( 26,143)   
    DRY( 26,144)   DRY( 26,145)   DRY( 26,146)   DRY( 26,147)   DRY( 26,148)   
    DRY( 26,149)   DRY( 26,150)   DRY( 26,151)   DRY( 26,152)   DRY( 26,153)   
    DRY( 26,154)   DRY( 26,155)   DRY( 26,156)   DRY( 26,157)   DRY( 26,158)   
    DRY( 26,159)   DRY( 26,160)   DRY( 26,161)   DRY( 26,162)   DRY( 26,163)   
    DRY( 26,164)   DRY( 26,165)   DRY( 26,166)   DRY( 26,167)   DRY( 26,168)   
    DRY( 26,169)   DRY( 26,170)   DRY( 26,171)   DRY( 26,172)   DRY( 26,173)   
    DRY( 26,174)   DRY( 26,175)   DRY( 26,176)   DRY( 26,177)   DRY( 26,178)   
    DRY( 26,179)   DRY( 26,180)   DRY( 26,181)   DRY( 26,182)   DRY( 26,183)   
    DRY( 26,184)   DRY( 26,185)   DRY( 26,186)   DRY( 26,187)   DRY( 26,188)   
    DRY( 26,189)   DRY( 26,190)   DRY( 26,191)   DRY( 26,192)   DRY( 26,193)   
    DRY( 26,194)   DRY( 26,195)   DRY( 26,196)   DRY( 26,197)   DRY( 26,198)   
    DRY( 26,199)   DRY( 26,200)   DRY( 26,201)   DRY( 26,202)   DRY( 26,203)   
    DRY( 26,204)   DRY( 26,205)   DRY( 26,206)   DRY( 26,207)   DRY( 26,208)   
    DRY( 26,209)   DRY( 26,210)   DRY( 26,211)   DRY( 26,212)   DRY( 26,213)   
    DRY( 26,214)   DRY( 26,215)   DRY( 26,216)   DRY( 26,217)   DRY( 26,218)   
    DRY( 26,219)   DRY( 26,220)   DRY( 27,  1)   DRY( 27,  2)   DRY( 27,  3)   
    DRY( 27,  4)   DRY( 27,  5)   DRY( 27,  6)   DRY( 27,  7)   DRY( 27,  8)   
    DRY( 27,  9)   DRY( 27, 10)   DRY( 27, 11)   DRY( 27, 12)   DRY( 27, 13)   
    DRY( 27, 14)   DRY( 27, 15)   DRY( 27, 16)   DRY( 27, 17)   DRY( 27, 18)   
    DRY( 27, 19)   DRY( 27, 20)   DRY( 27, 21)   DRY( 27, 22)   DRY( 27, 23)   
    DRY( 27, 24)   DRY( 27, 25)   DRY( 27, 26)   DRY( 27, 27)   DRY( 27, 28)   
    DRY( 27, 29)   DRY( 27, 30)   DRY( 27, 31)   DRY( 27, 32)   DRY( 27, 33)   
    DRY( 27, 34)   DRY( 27, 35)   DRY( 27, 36)   DRY( 27, 37)   DRY( 27, 38)   
    DRY( 27, 39)   DRY( 27, 40)   DRY( 27, 41)   DRY( 27, 42)   DRY( 27, 43)   
    DRY( 27, 44)   DRY( 27, 45)   DRY( 27, 46)   DRY( 27, 47)   DRY( 27, 48)   
    DRY( 27, 49)   DRY( 27, 50)   DRY( 27, 51)   DRY( 27, 52)   DRY( 27, 53)   
    DRY( 27, 54)   DRY( 27, 55)   DRY( 27, 56)   DRY( 27, 57)   DRY( 27, 58)   
    DRY( 27, 59)   DRY( 27, 60)   DRY( 27, 61)   DRY( 27, 62)   DRY( 27, 63)   
    DRY( 27, 64)   DRY( 27, 65)   DRY( 27, 66)   DRY( 27, 67)   DRY( 27, 68)   
    DRY( 27, 69)   DRY( 27, 70)   DRY( 27, 71)   DRY( 27, 72)   DRY( 27, 73)   
    DRY( 27, 74)   DRY( 27, 75)   DRY( 27, 76)   DRY( 27, 77)   DRY( 27, 78)   
    DRY( 27, 79)   DRY( 27, 80)   DRY( 27, 81)   DRY( 27, 82)   DRY( 27, 83)   
    DRY( 27, 84)   DRY( 27, 85)   DRY( 27, 86)   DRY( 27, 87)   DRY( 27, 88)   
    DRY( 27, 89)   DRY( 27, 90)   DRY( 27, 91)   DRY( 27, 92)   DRY( 27, 93)   
    DRY( 27, 94)   DRY( 27, 95)   DRY( 27, 96)   DRY( 27, 97)   DRY( 27, 98)   
    DRY( 27, 99)   DRY( 27,100)   DRY( 27,101)   DRY( 27,102)   DRY( 27,103)   
    DRY( 27,104)   DRY( 27,105)   DRY( 27,106)   DRY( 27,107)   DRY( 27,108)   
    DRY( 27,109)   DRY( 27,110)   DRY( 27,111)   DRY( 27,112)   DRY( 27,113)   
    DRY( 27,114)   DRY( 27,115)   DRY( 27,116)   DRY( 27,117)   DRY( 27,118)   
    DRY( 27,119)   DRY( 27,120)   DRY( 27,121)   DRY( 27,122)   DRY( 27,123)   
    DRY( 27,124)   DRY( 27,125)   DRY( 27,126)   DRY( 27,127)   DRY( 27,128)   
    DRY( 27,129)   DRY( 27,130)   DRY( 27,131)   DRY( 27,132)   DRY( 27,133)   
    DRY( 27,134)   DRY( 27,135)   DRY( 27,136)   DRY( 27,137)   DRY( 27,138)   
    DRY( 27,139)   DRY( 27,140)   DRY( 27,141)   DRY( 27,142)   DRY( 27,143)   
    DRY( 27,144)   DRY( 27,145)   DRY( 27,146)   DRY( 27,147)   DRY( 27,148)   
    DRY( 27,149)   DRY( 27,150)   DRY( 27,151)   DRY( 27,152)   DRY( 27,153)   
    DRY( 27,154)   DRY( 27,155)   DRY( 27,156)   DRY( 27,157)   DRY( 27,158)   
    DRY( 27,159)   DRY( 27,160)   DRY( 27,161)   DRY( 27,162)   DRY( 27,163)   
    DRY( 27,164)   DRY( 27,165)   DRY( 27,166)   DRY( 27,167)   DRY( 27,168)   
    DRY( 27,169)   DRY( 27,170)   DRY( 27,171)   DRY( 27,172)   DRY( 27,173)   
    DRY( 27,174)   DRY( 27,175)   DRY( 27,176)   DRY( 27,177)   DRY( 27,178)   
    DRY( 27,179)   DRY( 27,180)   DRY( 27,181)   DRY( 27,182)   DRY( 27,183)   
    DRY( 27,184)   DRY( 27,185)   DRY( 27,186)   DRY( 27,187)   DRY( 27,188)   
    DRY( 27,189)   DRY( 27,190)   DRY( 27,191)   DRY( 27,192)   DRY( 27,193)   
    DRY( 27,194)   DRY( 27,195)   DRY( 27,196)   DRY( 27,197)   DRY( 27,198)   
    DRY( 27,199)   DRY( 27,200)   DRY( 27,201)   DRY( 27,202)   DRY( 27,203)   
    DRY( 27,204)   DRY( 27,205)   DRY( 27,206)   DRY( 27,207)   DRY( 27,208)   
    DRY( 27,209)   DRY( 27,210)   DRY( 27,211)   DRY( 27,212)   DRY( 27,213)   
    DRY( 27,214)   DRY( 27,215)   DRY( 27,216)   DRY( 27,217)   DRY( 27,218)   
    DRY( 27,219)   DRY( 27,220)   DRY( 28,  1)   DRY( 28,  2)   DRY( 28,  3)   
    DRY( 28,  4)   DRY( 28,  5)   DRY( 28,  6)   DRY( 28,  7)   DRY( 28,  8)   
    DRY( 28,  9)   DRY( 28, 10)   DRY( 28, 11)   DRY( 28, 12)   DRY( 28, 13)   
    DRY( 28, 14)   DRY( 28, 15)   DRY( 28, 16)   DRY( 28, 17)   DRY( 28, 18)   
    DRY( 28, 19)   DRY( 28, 20)   DRY( 28, 21)   DRY( 28, 22)   DRY( 28, 23)   
    DRY( 28, 24)   DRY( 28, 25)   DRY( 28, 26)   DRY( 28, 27)   DRY( 28, 28)   
    DRY( 28, 29)   DRY( 28, 30)   DRY( 28, 31)   DRY( 28, 32)   DRY( 28, 33)   
    DRY( 28, 34)   DRY( 28, 35)   DRY( 28, 36)   DRY( 28, 37)   DRY( 28, 38)   
    DRY( 28, 39)   DRY( 28, 40)   DRY( 28, 41)   DRY( 28, 42)   DRY( 28, 43)   
    DRY( 28, 44)   DRY( 28, 45)   DRY( 28, 46)   DRY( 28, 47)   DRY( 28, 48)   
    DRY( 28, 49)   DRY( 28, 50)   DRY( 28, 51)   DRY( 28, 52)   DRY( 28, 53)   
    DRY( 28, 54)   DRY( 28, 55)   DRY( 28, 56)   DRY( 28, 57)   DRY( 28, 58)   
    DRY( 28, 59)   DRY( 28, 60)   DRY( 28, 61)   DRY( 28, 62)   DRY( 28, 63)   
    DRY( 28, 64)   DRY( 28, 65)   DRY( 28, 66)   DRY( 28, 67)   DRY( 28, 68)   
    DRY( 28, 69)   DRY( 28, 70)   DRY( 28, 71)   DRY( 28, 72)   DRY( 28, 73)   
    DRY( 28, 74)   DRY( 28, 75)   DRY( 28, 76)   DRY( 28, 77)   DRY( 28, 78)   
    DRY( 28, 79)   DRY( 28, 80)   DRY( 28, 81)   DRY( 28, 82)   DRY( 28, 83)   
    DRY( 28, 84)   DRY( 28, 85)   DRY( 28, 86)   DRY( 28, 87)   DRY( 28, 88)   
    DRY( 28, 89)   DRY( 28, 90)   DRY( 28, 91)   DRY( 28, 92)   DRY( 28, 93)   
    DRY( 28, 94)   DRY( 28, 95)   DRY( 28, 96)   DRY( 28, 97)   DRY( 28, 98)   
    DRY( 28, 99)   DRY( 28,100)   DRY( 28,101)   DRY( 28,102)   DRY( 28,103)   
    DRY( 28,104)   DRY( 28,105)   DRY( 28,106)   DRY( 28,107)   DRY( 28,108)   
    DRY( 28,109)   DRY( 28,110)   DRY( 28,111)   DRY( 28,112)   DRY( 28,113)   
    DRY( 28,114)   DRY( 28,115)   DRY( 28,116)   DRY( 28,117)   DRY( 28,118)   
    DRY( 28,119)   DRY( 28,120)   DRY( 28,121)   DRY( 28,122)   DRY( 28,123)   
    DRY( 28,124)   DRY( 28,125)   DRY( 28,126)   DRY( 28,127)   DRY( 28,128)   
    DRY( 28,129)   DRY( 28,130)   DRY( 28,131)   DRY( 28,132)   DRY( 28,133)   
    DRY( 28,134)   DRY( 28,135)   DRY( 28,136)   DRY( 28,137)   DRY( 28,138)   
    DRY( 28,139)   DRY( 28,140)   DRY( 28,141)   DRY( 28,142)   DRY( 28,143)   
    DRY( 28,144)   DRY( 28,145)   DRY( 28,146)   DRY( 28,147)   DRY( 28,148)   
    DRY( 28,149)   DRY( 28,150)   DRY( 28,151)   DRY( 28,152)   DRY( 28,153)   
    DRY( 28,154)   DRY( 28,155)   DRY( 28,156)   DRY( 28,157)   DRY( 28,158)   
    DRY( 28,159)   DRY( 28,160)   DRY( 28,161)   DRY( 28,162)   DRY( 28,163)   
    DRY( 28,164)   DRY( 28,165)   DRY( 28,166)   DRY( 28,167)   DRY( 28,168)   
    DRY( 28,169)   DRY( 28,170)   DRY( 28,171)   DRY( 28,172)   DRY( 28,173)   
    DRY( 28,174)   DRY( 28,175)   DRY( 28,176)   DRY( 28,177)   DRY( 28,178)   
    DRY( 28,179)   DRY( 28,180)   DRY( 28,181)   DRY( 28,182)   DRY( 28,183)   
    DRY( 28,184)   DRY( 28,185)   DRY( 28,186)   DRY( 28,187)   DRY( 28,188)   
    DRY( 28,189)   DRY( 28,190)   DRY( 28,191)   DRY( 28,192)   DRY( 28,193)   
    DRY( 28,194)   DRY( 28,195)   DRY( 28,196)   DRY( 28,197)   DRY( 28,198)   
    DRY( 28,199)   DRY( 28,200)   DRY( 28,201)   DRY( 28,202)   DRY( 28,203)   
    DRY( 28,204)   DRY( 28,205)   DRY( 28,206)   DRY( 28,207)   DRY( 28,208)   
    DRY( 28,209)   DRY( 28,210)   DRY( 28,211)   DRY( 28,212)   DRY( 28,213)   
    DRY( 28,214)   DRY( 28,215)   DRY( 28,216)   DRY( 28,217)   DRY( 28,218)   
    DRY( 28,219)   DRY( 28,220)   

 CELL CONVERSIONS FOR ITER.=  2  LAYER=  8  STEP=  1  PERIOD=   1   (ROW,COL)
    DRY( 12,  1)   DRY( 12,  2)   DRY( 13,  1)   DRY( 13,  2)   DRY( 13,  3)   
    DRY( 13,  4)   DRY( 13,  5)   DRY( 13,  6)   DRY( 13,  7)   DRY( 13,  8)   
    DRY( 13,  9)   DRY( 13, 10)   DRY( 13, 11)   DRY( 13, 12)   DRY( 14,  1)   
    DRY( 14,  2)   DRY( 14,  3)   DRY( 14,  4)   DRY( 14,  5)   DRY( 14,  6)   
    DRY( 14,  7)   DRY( 14,  8)   DRY( 14,  9)   DRY( 14, 10)   DRY( 14, 11)   
    DRY( 14, 12)   DRY( 14, 13)   DRY( 14, 14)   DRY( 14, 15)   DRY( 14, 16)   
    DRY( 14, 17)   DRY( 14, 18)   DRY( 14, 19)   DRY( 14, 20)   DRY( 14, 21)   
    DRY( 14, 22)   DRY( 14, 23)   DRY( 15,  1)   DRY( 15,  2)   DRY( 15,  3)   
    DRY( 15,  4)   DRY( 15,  5)   DRY( 15,  6)   DRY( 15,  7)   DRY( 15,  8)   
    DRY( 15,  9)   DRY( 15, 10)   DRY( 15, 11)   DRY( 15, 12)   DRY( 15, 13)   
    DRY( 15, 14)   DRY( 15, 15)   DRY( 15, 16)   DRY( 15, 17)   DRY( 15, 18)   
    DRY( 15, 19)   DRY( 15, 20)   DRY( 15, 21)   DRY( 15, 22)   DRY( 15, 23)   
    DRY( 15, 24)   DRY( 15, 25)   DRY( 15, 26)   DRY( 15, 27)   DRY( 15, 28)   
    DRY( 15, 29)   DRY( 15, 30)   DRY( 15, 31)   DRY( 15, 32)   DRY( 15, 33)   
    DRY( 15, 34)   DRY( 15,198)   DRY( 15,199)   DRY( 15,200)   DRY( 15,201)   
    DRY( 15,202)   DRY( 15,203)   DRY( 16,  1)   DRY( 16,  2)   DRY( 16,  3)   
    DRY( 16,  4)   DRY( 16,  5)   DRY( 16,  6)   DRY( 16,  7)   DRY( 16,  8)   
    DRY( 16,  9)   DRY( 16, 10)   DRY( 16, 11)   DRY( 16, 12)   DRY( 16, 13)   
    DRY( 16, 14)   DRY( 16, 15)   DRY( 16, 16)   DRY( 16, 17)   DRY( 16, 18)   
    DRY( 16, 19)   DRY( 16, 20)   DRY( 16, 21)   DRY( 16, 22)   DRY( 16, 23)   
    DRY( 16, 24)   DRY( 16, 25)   DRY( 16, 26)   DRY( 16, 27)   DRY( 16, 28)   
    DRY( 16, 29)   DRY( 16, 30)   DRY( 16, 31)   DRY( 16, 32)   DRY( 16, 33)   
    DRY( 16, 34)   DRY( 16, 35)   DRY( 16, 36)   DRY( 16, 37)   DRY( 16, 38)   
    DRY( 16, 39)   DRY( 16, 40)   DRY( 16, 41)   DRY( 16, 42)   DRY( 16, 43)   
    DRY( 16, 44)   DRY( 16, 45)   DRY( 16, 46)   DRY( 16, 47)   DRY( 16, 48)   
    DRY( 16, 49)   DRY( 16, 50)   DRY( 16, 51)   DRY( 16, 52)   DRY( 16, 53)   
    DRY( 16, 54)   DRY( 16, 55)   DRY( 16, 56)   DRY( 16, 57)   DRY( 16, 58)   
    DRY( 16, 59)   DRY( 16, 60)   DRY( 16, 61)   DRY( 16, 62)   DRY( 16, 63)   
    DRY( 16, 64)   DRY( 16, 65)   DRY( 16, 66)   DRY( 16, 67)   DRY( 16, 68)   
    DRY( 16, 69)   DRY( 16, 70)   DRY( 16, 71)   DRY( 16, 72)   DRY( 16, 73)   
    DRY( 16, 74)   DRY( 16, 75)   DRY( 16, 76)   DRY( 16, 77)   DRY( 16, 78)   
    DRY( 16, 79)   DRY( 16, 80)   DRY( 16, 81)   DRY( 16, 82)   DRY( 16, 83)   
    DRY( 16, 84)   DRY( 16, 85)   DRY( 16, 86)   DRY( 16, 87)   DRY( 16, 88)   
    DRY( 16, 89)   DRY( 16, 90)   DRY( 16, 91)   DRY( 16, 92)   DRY( 16, 93)   
    DRY( 16, 94)   DRY( 16, 95)   DRY( 16, 96)   DRY( 16, 97)   DRY( 16, 98)   
    DRY( 16, 99)   DRY( 16,100)   DRY( 16,101)   DRY( 16,102)   DRY( 16,103)   
    DRY( 16,104)   DRY( 16,105)   DRY( 16,121)   DRY( 16,122)   DRY( 16,139)   
    DRY( 16,140)   DRY( 16,141)   DRY( 16,142)   DRY( 16,143)   DRY( 16,144)   
    DRY( 16,145)   DRY( 16,146)   DRY( 16,147)   DRY( 16,148)   DRY( 16,161)   
    DRY( 16,162)   DRY( 16,163)   DRY( 16,164)   DRY( 16,165)   DRY( 16,166)   
    DRY( 16,167)   DRY( 16,168)   DRY( 16,169)   DRY( 16,170)   DRY( 16,196)   
    DRY( 16,197)   DRY( 16,198)   DRY( 16,199)   DRY( 16,200)   DRY( 16,201)   
    DRY( 16,202)   DRY( 16,203)   DRY( 16,204)   DRY( 16,205)   DRY( 17,  1)   
    DRY( 17,  2)   DRY( 17,  3)   DRY( 17,  4)   DRY( 17,  5)   DRY( 17,  6)   
    DRY( 17,  7)   DRY( 17,  8)   DRY( 17,  9)   DRY( 17, 10)   DRY( 17, 11)   
    DRY( 17, 12)   DRY( 17, 13)   DRY( 17, 14)   DRY( 17, 15)   DRY( 17, 16)   
    DRY( 17, 17)   DRY( 17, 18)   DRY( 17, 19)   DRY( 17, 20)   DRY( 17, 21)   
    DRY( 17, 22)   DRY( 17, 23)   DRY( 17, 24)   DRY( 17, 25)   DRY( 17, 26)   
    DRY( 17, 27)   DRY( 17, 28)   DRY( 17, 29)   DRY( 17, 30)   DRY( 17, 31)   
    DRY( 17, 32)   DRY( 17, 33)   DRY( 17, 34)   DRY( 17, 35)   DRY( 17, 36)   
    DRY( 17, 37)   DRY( 17, 38)   DRY( 17, 39)   DRY( 17, 40)   DRY( 17, 41)   
    DRY( 17, 42)   DRY( 17, 43)   DRY( 17, 44)   DRY( 17, 45)   DRY( 17, 46)   
    DRY( 17, 47)   DRY( 17, 48)   DRY( 17, 49)   DRY( 17, 50)   DRY( 17, 51)   
    DRY( 17, 52)   DRY( 17, 53)   DRY( 17, 54)   DRY( 17, 55)   DRY( 17, 56)   
    DRY( 17, 57)   DRY( 17, 58)   DRY( 17, 59)   DRY( 17, 60)   DRY( 17, 61)   
    DRY( 17, 62)   DRY( 17, 63)   DRY( 17, 64)   DRY( 17, 65)   DRY( 17, 66)   
    DRY( 17, 67)   DRY( 17, 68)   DRY( 17, 69)   DRY( 17, 70)   DRY( 17, 71)   
    DRY( 17, 72)   DRY( 17, 73)   DRY( 17, 74)   DRY( 17, 75)   DRY( 17, 76)   
    DRY( 17, 77)   DRY( 17, 78)   DRY( 17, 79)   DRY( 17, 80)   DRY( 17, 81)   
    DRY( 17, 82)   DRY( 17, 83)   DRY( 17, 84)   DRY( 17, 85)   DRY( 17, 86)   
    DRY( 17, 87)   DRY( 17, 88)   DRY( 17, 89)   DRY( 17, 90)   DRY( 17, 91)   
    DRY( 17, 92)   DRY( 17, 93)   DRY( 17, 94)   DRY( 17, 95)   DRY( 17, 96)   
    DRY( 17, 97)   DRY( 17, 98)   DRY( 17, 99)   DRY( 17,100)   DRY( 17,101)   
    DRY( 17,102)   DRY( 17,103)   DRY( 17,104)   DRY( 17,105)   DRY( 17,106)   
    DRY( 17,107)   DRY( 17,108)   DRY( 17,109)   DRY( 17,110)   DRY( 17,111)   
    DRY( 17,112)   DRY( 17,113)   DRY( 17,114)   DRY( 17,115)   DRY( 17,116)   
    DRY( 17,117)   DRY( 17,118)   DRY( 17,119)   DRY( 17,120)   DRY( 17,121)   
    DRY( 17,122)   DRY( 17,123)   DRY( 17,124)   DRY( 17,125)   DRY( 17,126)   
    DRY( 17,127)   DRY( 17,128)   DRY( 17,129)   DRY( 17,130)   DRY( 17,131)   
    DRY( 17,132)   DRY( 17,133)   DRY( 17,134)   DRY( 17,135)   DRY( 17,136)   
    DRY( 17,137)   DRY( 17,138)   DRY( 17,139)   DRY( 17,140)   DRY( 17,141)   
    DRY( 17,142)   DRY( 17,143)   DRY( 17,144)   DRY( 17,145)   DRY( 17,146)   
    DRY( 17,147)   DRY( 17,148)   DRY( 17,149)   DRY( 17,150)   DRY( 17,151)   
    DRY( 17,152)   DRY( 17,153)   DRY( 17,154)   DRY( 17,155)   DRY( 17,156)   
    DRY( 17,157)   DRY( 17,158)   DRY( 17,159)   DRY( 17,160)   DRY( 17,161)   
    DRY( 17,162)   DRY( 17,163)   DRY( 17,164)   DRY( 17,165)   DRY( 17,166)   
    DRY( 17,167)   DRY( 17,168)   DRY( 17,169)   DRY( 17,170)   DRY( 17,171)   
    DRY( 17,172)   DRY( 17,173)   DRY( 17,174)   DRY( 17,175)   DRY( 17,176)   
    DRY( 17,177)   DRY( 17,178)   DRY( 17,179)   DRY( 17,180)   DRY( 17,181)   
    DRY( 17,182)   DRY( 17,183)   DRY( 17,184)   DRY( 17,185)   DRY( 17,186)   
    DRY( 17,187)   DRY( 17,188)   DRY( 17,189)   DRY( 17,194)   DRY( 17,195)   
    DRY( 17,196)   DRY( 17,197)   DRY( 17,198)   DRY( 17,199)   DRY( 17,200)   
    DRY( 17,201)   DRY( 17,202)   DRY( 17,203)   DRY( 17,204)   DRY( 17,205)   
    DRY( 17,206)   DRY( 17,207)   DRY( 17,215)   DRY( 17,216)   DRY( 17,217)   
    DRY( 18,  1)   DRY( 18,  2)   DRY( 18,  3)   DRY( 18,  4)   DRY( 18,  5)   
    DRY( 18,  6)   DRY( 18,  7)   DRY( 18,  8)   DRY( 18,  9)   DRY( 18, 10)   
    DRY( 18, 11)   DRY( 18, 12)   DRY( 18, 13)   DRY( 18, 14)   DRY( 18, 15)   
    DRY( 18, 16)   DRY( 18, 17)   DRY( 18, 18)   DRY( 18, 19)   DRY( 18, 20)   
    DRY( 18, 21)   DRY( 18, 22)   DRY( 18, 23)   DRY( 18, 24)   DRY( 18, 25)   
    DRY( 18, 26)   DRY( 18, 27)   DRY( 18, 28)   DRY( 18, 29)   DRY( 18, 30)   
    DRY( 18, 31)   DRY( 18, 32)   DRY( 18, 33)   DRY( 18, 34)   DRY( 18, 35)   
    DRY( 18, 36)   DRY( 18, 37)   DRY( 18, 38)   DRY( 18, 39)   DRY( 18, 40)   
    DRY( 18, 41)   DRY( 18, 42)   DRY( 18, 43)   DRY( 18, 44)   DRY( 18, 45)   
    DRY( 18, 46)   DRY( 18, 47)   DRY( 18, 48)   DRY( 18, 49)   DRY( 18, 50)   
    DRY( 18, 51)   DRY( 18, 52)   DRY( 18, 53)   DRY( 18, 54)   DRY( 18, 55)   
    DRY( 18, 56)   DRY( 18, 57)   DRY( 18, 58)   DRY( 18, 59)   DRY( 18, 60)   
    DRY( 18, 61)   DRY( 18, 62)   DRY( 18, 63)   DRY( 18, 64)   DRY( 18, 65)   
    DRY( 18, 66)   DRY( 18, 67)   DRY( 18, 68)   DRY( 18, 69)   DRY( 18, 70)   
    DRY( 18, 71)   DRY( 18, 72)   DRY( 18, 73)   DRY( 18, 74)   DRY( 18, 75)   
    DRY( 18, 76)   DRY( 18, 77)   DRY( 18, 78)   DRY( 18, 79)   DRY( 18, 80)   
    DRY( 18, 81)   DRY( 18, 82)   DRY( 18, 83)   DRY( 18, 84)   DRY( 18, 85)   
    DRY( 18, 86)   DRY( 18, 87)   DRY( 18, 88)   DRY( 18, 89)   DRY( 18, 90)   
    DRY( 18, 91)   DRY( 18, 92)   DRY( 18, 93)   DRY( 18, 94)   DRY( 18, 95)   
    DRY( 18, 96)   DRY( 18, 97)   DRY( 18, 98)   DRY( 18, 99)   DRY( 18,100)   
    DRY( 18,101)   DRY( 18,102)   DRY( 18,103)   DRY( 18,104)   DRY( 18,105)   
    DRY( 18,106)   DRY( 18,107)   DRY( 18,108)   DRY( 18,109)   DRY( 18,110)   
    DRY( 18,111)   DRY( 18,112)   DRY( 18,113)   DRY( 18,114)   DRY( 18,115)   
    DRY( 18,116)   DRY( 18,117)   DRY( 18,118)   DRY( 18,119)   DRY( 18,120)   
    DRY( 18,121)   DRY( 18,122)   DRY( 18,123)   DRY( 18,124)   DRY( 18,125)   
    DRY( 18,126)   DRY( 18,127)   DRY( 18,128)   DRY( 18,129)   DRY( 18,130)   
    DRY( 18,131)   DRY( 18,132)   DRY( 18,133)   DRY( 18,134)   DRY( 18,135)   
    DRY( 18,136)   DRY( 18,137)   DRY( 18,138)   DRY( 18,139)   DRY( 18,140)   
    DRY( 18,141)   DRY( 18,142)   DRY( 18,143)   DRY( 18,144)   DRY( 18,145)   
    DRY( 18,146)   DRY( 18,147)   DRY( 18,148)   DRY( 18,149)   DRY( 18,150)   
    DRY( 18,151)   DRY( 18,152)   DRY( 18,153)   DRY( 18,154)   DRY( 18,155)   
    DRY( 18,156)   DRY( 18,157)   DRY( 18,158)   DRY( 18,159)   DRY( 18,160)   
    DRY( 18,161)   DRY( 18,162)   DRY( 18,163)   DRY( 18,164)   DRY( 18,165)   
    DRY( 18,166)   DRY( 18,167)   DRY( 18,168)   DRY( 18,169)   DRY( 18,170)   
    DRY( 18,171)   DRY( 18,172)   DRY( 18,173)   DRY( 18,174)   DRY( 18,175)   
    DRY( 18,176)   DRY( 18,177)   DRY( 18,178)   DRY( 18,179)   DRY( 18,180)   
    DRY( 18,181)   DRY( 18,182)   DRY( 18,183)   DRY( 18,184)   DRY( 18,185)   
    DRY( 18,186)   DRY( 18,187)   DRY( 18,188)   DRY( 18,189)   DRY( 18,190)   
    DRY( 18,191)   DRY( 18,192)   DRY( 18,193)   DRY( 18,194)   DRY( 18,195)   
    DRY( 18,196)   DRY( 18,197)   DRY( 18,198)   DRY( 18,199)   DRY( 18,200)   
    DRY( 18,201)   DRY( 18,202)   DRY( 18,203)   DRY( 18,204)   DRY( 18,205)   
    DRY( 18,206)   DRY( 18,207)   DRY( 18,208)   DRY( 18,209)   DRY( 18,215)   
    DRY( 18,216)   DRY( 18,217)   DRY( 18,218)   DRY( 18,219)   DRY( 18,220)   
    DRY( 19,  1)   DRY( 19,  2)   DRY( 19,  3)   DRY( 19,  4)   DRY( 19,  5)   
    DRY( 19,  6)   DRY( 19,  7)   DRY( 19,  8)   DRY( 19,  9)   DRY( 19, 10)   
    DRY( 19, 11)   DRY( 19, 12)   DRY( 19, 13)   DRY( 19, 14)   DRY( 19, 15)   
    DRY( 19, 16)   DRY( 19, 17)   DRY( 19, 18)   DRY( 19, 19)   DRY( 19, 20)   
    DRY( 19, 21)   DRY( 19, 22)   DRY( 19, 23)   DRY( 19, 24)   DRY( 19, 25)   
    DRY( 19, 26)   DRY( 19, 27)   DRY( 19, 28)   DRY( 19, 29)   DRY( 19, 30)   
    DRY( 19, 31)   DRY( 19, 32)   DRY( 19, 33)   DRY( 19, 34)   DRY( 19, 35)   
    DRY( 19, 36)   DRY( 19, 37)   DRY( 19, 38)   DRY( 19, 39)   DRY( 19, 40)   
    DRY( 19, 41)   DRY( 19, 42)   DRY( 19, 43)   DRY( 19, 44)   DRY( 19, 45)   
    DRY( 19, 46)   DRY( 19, 47)   DRY( 19, 48)   DRY( 19, 49)   DRY( 19, 50)   
    DRY( 19, 51)   DRY( 19, 52)   DRY( 19, 53)   DRY( 19, 54)   DRY( 19, 55)   
    DRY( 19, 56)   DRY( 19, 57)   DRY( 19, 58)   DRY( 19, 59)   DRY( 19, 60)   
    DRY( 19, 61)   DRY( 19, 62)   DRY( 19, 63)   DRY( 19, 64)   DRY( 19, 65)   
    DRY( 19, 66)   DRY( 19, 67)   DRY( 19, 68)   DRY( 19, 69)   DRY( 19, 70)   
    DRY( 19, 71)   DRY( 19, 72)   DRY( 19, 73)   DRY( 19, 74)   DRY( 19, 75)   
    DRY( 19, 76)   DRY( 19, 77)   DRY( 19, 78)   DRY( 19, 79)   DRY( 19, 80)   
    DRY( 19, 81)   DRY( 19, 82)   DRY( 19, 83)   DRY( 19, 84)   DRY( 19, 85)   
    DRY( 19, 86)   DRY( 19, 87)   DRY( 19, 88)   DRY( 19, 89)   DRY( 19, 90)   
    DRY( 19, 91)   DRY( 19, 92)   DRY( 19, 93)   DRY( 19, 94)   DRY( 19, 95)   
    DRY( 19, 96)   DRY( 19, 97)   DRY( 19, 98)   DRY( 19, 99)   DRY( 19,100)   
    DRY( 19,101)   DRY( 19,102)   DRY( 19,103)   DRY( 19,104)   DRY( 19,105)   
    DRY( 19,106)   DRY( 19,107)   DRY( 19,108)   DRY( 19,109)   DRY( 19,110)   
    DRY( 19,111)   DRY( 19,112)   DRY( 19,113)   DRY( 19,114)   DRY( 19,115)   
    DRY( 19,116)   DRY( 19,117)   DRY( 19,118)   DRY( 19,119)   DRY( 19,120)   
    DRY( 19,121)   DRY( 19,122)   DRY( 19,123)   DRY( 19,124)   DRY( 19,125)   
    DRY( 19,126)   DRY( 19,127)   DRY( 19,128)   DRY( 19,129)   DRY( 19,130)   
    DRY( 19,131)   DRY( 19,132)   DRY( 19,133)   DRY( 19,134)   DRY( 19,135)   
    DRY( 19,136)   DRY( 19,137)   DRY( 19,138)   DRY( 19,139)   DRY( 19,140)   
    DRY( 19,141)   DRY( 19,142)   DRY( 19,143)   DRY( 19,144)   DRY( 19,145)   
    DRY( 19,146)   DRY( 19,147)   DRY( 19,148)   DRY( 19,149)   DRY( 19,150)   
    DRY( 19,151)   DRY( 19,152)   DRY( 19,153)   DRY( 19,154)   DRY( 19,155)   
    DRY( 19,156)   DRY( 19,157)   DRY( 19,158)   DRY( 19,159)   DRY( 19,160)   
    DRY( 19,161)   DRY( 19,162)   DRY( 19,163)   DRY( 19,164)   DRY( 19,165)   
    DRY( 19,166)   DRY( 19,167)   DRY( 19,168)   DRY( 19,169)   DRY( 19,170)   
    DRY( 19,171)   DRY( 19,172)   DRY( 19,173)   DRY( 19,174)   DRY( 19,175)   
    DRY( 19,176)   DRY( 19,177)   DRY( 19,178)   DRY( 19,179)   DRY( 19,180)   
    DRY( 19,181)   DRY( 19,182)   DRY( 19,183)   DRY( 19,184)   DRY( 19,185)   
    DRY( 19,186)   DRY( 19,187)   DRY( 19,188)   DRY( 19,189)   DRY( 19,190)   
    DRY( 19,191)   DRY( 19,192)   DRY( 19,193)   DRY( 19,194)   DRY( 19,195)   
    DRY( 19,196)   DRY( 19,197)   DRY( 19,198)   DRY( 19,199)   DRY( 19,200)   
    DRY( 19,201)   DRY( 19,202)   DRY( 19,203)   DRY( 19,204)   DRY( 19,205)   
    DRY( 19,206)   DRY( 19,207)   DRY( 19,208)   DRY( 19,209)   DRY( 19,210)   
    DRY( 19,211)   DRY( 19,215)   DRY( 19,216)   DRY( 19,217)   DRY( 19,218)   
    DRY( 19,219)   DRY( 19,220)   DRY( 20,  1)   DRY( 20,  2)   DRY( 20,  3)   
    DRY( 20,  4)   DRY( 20,  5)   DRY( 20,  6)   DRY( 20,  7)   DRY( 20,  8)   
    DRY( 20,  9)   DRY( 20, 10)   DRY( 20, 11)   DRY( 20, 12)   DRY( 20, 13)   
    DRY( 20, 14)   DRY( 20, 15)   DRY( 20, 16)   DRY( 20, 17)   DRY( 20, 18)   
    DRY( 20, 19)   DRY( 20, 20)   DRY( 20, 21)   DRY( 20, 22)   DRY( 20, 23)   
    DRY( 20, 24)   DRY( 20, 25)   DRY( 20, 26)   DRY( 20, 27)   DRY( 20, 28)   
    DRY( 20, 29)   DRY( 20, 30)   DRY( 20, 31)   DRY( 20, 32)   DRY( 20, 33)   
    DRY( 20, 34)   DRY( 20, 35)   DRY( 20, 36)   DRY( 20, 37)   DRY( 20, 38)   
    DRY( 20, 39)   DRY( 20, 40)   DRY( 20, 41)   DRY( 20, 42)   DRY( 20, 43)   
    DRY( 20, 44)   DRY( 20, 45)   DRY( 20, 46)   DRY( 20, 47)   DRY( 20, 48)   
    DRY( 20, 49)   DRY( 20, 50)   DRY( 20, 51)   DRY( 20, 52)   DRY( 20, 53)   
    DRY( 20, 54)   DRY( 20, 55)   DRY( 20, 56)   DRY( 20, 57)   DRY( 20, 58)   
    DRY( 20, 59)   DRY( 20, 60)   DRY( 20, 61)   DRY( 20, 62)   DRY( 20, 63)   
    DRY( 20, 64)   DRY( 20, 65)   DRY( 20, 66)   DRY( 20, 67)   DRY( 20, 68)   
    DRY( 20, 69)   DRY( 20, 70)   DRY( 20, 71)   DRY( 20, 72)   DRY( 20, 73)   
    DRY( 20, 74)   DRY( 20, 75)   DRY( 20, 76)   DRY( 20, 77)   DRY( 20, 78)   
    DRY( 20, 79)   DRY( 20, 80)   DRY( 20, 81)   DRY( 20, 82)   DRY( 20, 83)   
    DRY( 20, 84)   DRY( 20, 85)   DRY( 20, 86)   DRY( 20, 87)   DRY( 20, 88)   
    DRY( 20, 89)   DRY( 20, 90)   DRY( 20, 91)   DRY( 20, 92)   DRY( 20, 93)   
    DRY( 20, 94)   DRY( 20, 95)   DRY( 20, 96)   DRY( 20, 97)   DRY( 20, 98)   
    DRY( 20, 99)   DRY( 20,100)   DRY( 20,101)   DRY( 20,102)   DRY( 20,103)   
    DRY( 20,104)   DRY( 20,105)   DRY( 20,106)   DRY( 20,107)   DRY( 20,108)   
    DRY( 20,109)   DRY( 20,110)   DRY( 20,111)   DRY( 20,112)   DRY( 20,113)   
    DRY( 20,114)   DRY( 20,115)   DRY( 20,116)   DRY( 20,117)   DRY( 20,118)   
    DRY( 20,119)   DRY( 20,120)   DRY( 20,121)   DRY( 20,122)   DRY( 20,123)   
    DRY( 20,124)   DRY( 20,125)   DRY( 20,126)   DRY( 20,127)   DRY( 20,128)   
    DRY( 20,129)   DRY( 20,130)   DRY( 20,131)   DRY( 20,132)   DRY( 20,133)   
    DRY( 20,134)   DRY( 20,135)   DRY( 20,136)   DRY( 20,137)   DRY( 20,138)   
    DRY( 20,139)   DRY( 20,140)   DRY( 20,141)   DRY( 20,142)   DRY( 20,143)   
    DRY( 20,144)   DRY( 20,145)   DRY( 20,146)   DRY( 20,147)   DRY( 20,148)   
    DRY( 20,149)   DRY( 20,150)   DRY( 20,151)   DRY( 20,152)   DRY( 20,153)   
    DRY( 20,154)   DRY( 20,155)   DRY( 20,156)   DRY( 20,157)   DRY( 20,158)   
    DRY( 20,159)   DRY( 20,160)   DRY( 20,161)   DRY( 20,162)   DRY( 20,163)   
    DRY( 20,164)   DRY( 20,165)   DRY( 20,166)   DRY( 20,167)   DRY( 20,168)   
    DRY( 20,169)   DRY( 20,170)   DRY( 20,171)   DRY( 20,172)   DRY( 20,173)   
    DRY( 20,174)   DRY( 20,175)   DRY( 20,176)   DRY( 20,177)   DRY( 20,178)   
    DRY( 20,179)   DRY( 20,180)   DRY( 20,181)   DRY( 20,182)   DRY( 20,183)   
    DRY( 20,184)   DRY( 20,185)   DRY( 20,186)   DRY( 20,187)   DRY( 20,188)   
    DRY( 20,189)   DRY( 20,190)   DRY( 20,191)   DRY( 20,192)   DRY( 20,193)   
    DRY( 20,194)   DRY( 20,195)   DRY( 20,196)   DRY( 20,197)   DRY( 20,198)   
    DRY( 20,199)   DRY( 20,200)   DRY( 20,201)   DRY( 20,202)   DRY( 20,203)   
    DRY( 20,204)   DRY( 20,205)   DRY( 20,206)   DRY( 20,207)   DRY( 20,208)   
    DRY( 20,209)   DRY( 20,210)   DRY( 20,211)   DRY( 20,212)   DRY( 20,213)   
    DRY( 20,214)   DRY( 20,215)   DRY( 20,216)   DRY( 20,217)   DRY( 20,218)   
    DRY( 20,219)   DRY( 20,220)   DRY( 21,  1)   DRY( 21,  2)   DRY( 21,  3)   
    DRY( 21,  4)   DRY( 21,  5)   DRY( 21,  6)   DRY( 21,  7)   DRY( 21,  8)   
    DRY( 21,  9)   DRY( 21, 10)   DRY( 21, 11)   DRY( 21, 12)   DRY( 21, 13)   
    DRY( 21, 14)   DRY( 21, 15)   DRY( 21, 16)   DRY( 21, 17)   DRY( 21, 18)   
    DRY( 21, 19)   DRY( 21, 20)   DRY( 21, 21)   DRY( 21, 22)   DRY( 21, 23)   
    DRY( 21, 24)   DRY( 21, 25)   DRY( 21, 26)   DRY( 21, 27)   DRY( 21, 28)   
    DRY( 21, 29)   DRY( 21, 30)   DRY( 21, 31)   DRY( 21, 32)   DRY( 21, 33)   
    DRY( 21, 34)   DRY( 21, 35)   DRY( 21, 36)   DRY( 21, 37)   DRY( 21, 38)   
    DRY( 21, 39)   DRY( 21, 40)   DRY( 21, 41)   DRY( 21, 42)   DRY( 21, 43)   
    DRY( 21, 44)   DRY( 21, 45)   DRY( 21, 46)   DRY( 21, 47)   DRY( 21, 48)   
    DRY( 21, 49)   DRY( 21, 50)   DRY( 21, 51)   DRY( 21, 52)   DRY( 21, 53)   
    DRY( 21, 54)   DRY( 21, 55)   DRY( 21, 56)   DRY( 21, 57)   DRY( 21, 58)   
    DRY( 21, 59)   DRY( 21, 60)   DRY( 21, 61)   DRY( 21, 62)   DRY( 21, 63)   
    DRY( 21, 64)   DRY( 21, 65)   DRY( 21, 66)   DRY( 21, 67)   DRY( 21, 68)   
    DRY( 21, 69)   DRY( 21, 70)   DRY( 21, 71)   DRY( 21, 72)   DRY( 21, 73)   
    DRY( 21, 74)   DRY( 21, 75)   DRY( 21, 76)   DRY( 21, 77)   DRY( 21, 78)   
    DRY( 21, 79)   DRY( 21, 80)   DRY( 21, 81)   DRY( 21, 82)   DRY( 21, 83)   
    DRY( 21, 84)   DRY( 21, 85)   DRY( 21, 86)   DRY( 21, 87)   DRY( 21, 88)   
    DRY( 21, 89)   DRY( 21, 90)   DRY( 21, 91)   DRY( 21, 92)   DRY( 21, 93)   
    DRY( 21, 94)   DRY( 21, 95)   DRY( 21, 96)   DRY( 21, 97)   DRY( 21, 98)   
    DRY( 21, 99)   DRY( 21,100)   DRY( 21,101)   DRY( 21,102)   DRY( 21,103)   
    DRY( 21,104)   DRY( 21,105)   DRY( 21,106)   DRY( 21,107)   DRY( 21,108)   
    DRY( 21,109)   DRY( 21,110)   DRY( 21,111)   DRY( 21,112)   DRY( 21,113)   
    DRY( 21,114)   DRY( 21,115)   DRY( 21,116)   DRY( 21,117)   DRY( 21,118)   
    DRY( 21,119)   DRY( 21,120)   DRY( 21,121)   DRY( 21,122)   DRY( 21,123)   
    DRY( 21,124)   DRY( 21,125)   DRY( 21,126)   DRY( 21,127)   DRY( 21,128)   
    DRY( 21,129)   DRY( 21,130)   DRY( 21,131)   DRY( 21,132)   DRY( 21,133)   
    DRY( 21,134)   DRY( 21,135)   DRY( 21,136)   DRY( 21,137)   DRY( 21,138)   
    DRY( 21,139)   DRY( 21,140)   DRY( 21,141)   DRY( 21,142)   DRY( 21,143)   
    DRY( 21,144)   DRY( 21,145)   DRY( 21,146)   DRY( 21,147)   DRY( 21,148)   
    DRY( 21,149)   DRY( 21,150)   DRY( 21,151)   DRY( 21,152)   DRY( 21,153)   
    DRY( 21,154)   DRY( 21,155)   DRY( 21,156)   DRY( 21,157)   DRY( 21,158)   
    DRY( 21,159)   DRY( 21,160)   DRY( 21,161)   DRY( 21,162)   DRY( 21,163)   
    DRY( 21,164)   DRY( 21,165)   DRY( 21,166)   DRY( 21,167)   DRY( 21,168)   
    DRY( 21,169)   DRY( 21,170)   DRY( 21,171)   DRY( 21,172)   DRY( 21,173)   
    DRY( 21,174)   DRY( 21,175)   DRY( 21,176)   DRY( 21,177)   DRY( 21,178)   
    DRY( 21,179)   DRY( 21,180)   DRY( 21,181)   DRY( 21,182)   DRY( 21,183)   
    DRY( 21,184)   DRY( 21,185)   DRY( 21,186)   DRY( 21,187)   DRY( 21,188)   
    DRY( 21,189)   DRY( 21,190)   DRY( 21,191)   DRY( 21,192)   DRY( 21,193)   
    DRY( 21,194)   DRY( 21,195)   DRY( 21,196)   DRY( 21,197)   DRY( 21,198)   
    DRY( 21,199)   DRY( 21,200)   DRY( 21,201)   DRY( 21,202)   DRY( 21,203)   
    DRY( 21,204)   DRY( 21,205)   DRY( 21,206)   DRY( 21,207)   DRY( 21,208)   
    DRY( 21,209)   DRY( 21,210)   DRY( 21,211)   DRY( 21,212)   DRY( 21,213)   
    DRY( 21,214)   DRY( 21,215)   DRY( 21,216)   DRY( 21,217)   DRY( 21,218)   
    DRY( 21,219)   DRY( 21,220)   DRY( 22,  1)   DRY( 22,  2)   DRY( 22,  3)   
    DRY( 22,  4)   DRY( 22,  5)   DRY( 22,  6)   DRY( 22,  7)   DRY( 22,  8)   
    DRY( 22,  9)   DRY( 22, 10)   DRY( 22, 11)   DRY( 22, 12)   DRY( 22, 13)   
    DRY( 22, 14)   DRY( 22, 15)   DRY( 22, 16)   DRY( 22, 17)   DRY( 22, 18)   
    DRY( 22, 19)   DRY( 22, 20)   DRY( 22, 21)   DRY( 22, 22)   DRY( 22, 23)   
    DRY( 22, 24)   DRY( 22, 25)   DRY( 22, 26)   DRY( 22, 27)   DRY( 22, 28)   
    DRY( 22, 29)   DRY( 22, 30)   DRY( 22, 31)   DRY( 22, 32)   DRY( 22, 33)   
    DRY( 22, 34)   DRY( 22, 35)   DRY( 22, 36)   DRY( 22, 37)   DRY( 22, 38)   
    DRY( 22, 39)   DRY( 22, 40)   DRY( 22, 41)   DRY( 22, 42)   DRY( 22, 43)   
    DRY( 22, 44)   DRY( 22, 45)   DRY( 22, 46)   DRY( 22, 47)   DRY( 22, 48)   
    DRY( 22, 49)   DRY( 22, 50)   DRY( 22, 51)   DRY( 22, 52)   DRY( 22, 53)   
    DRY( 22, 54)   DRY( 22, 55)   DRY( 22, 56)   DRY( 22, 57)   DRY( 22, 58)   
    DRY( 22, 59)   DRY( 22, 60)   DRY( 22, 61)   DRY( 22, 62)   DRY( 22, 63)   
    DRY( 22, 64)   DRY( 22, 65)   DRY( 22, 66)   DRY( 22, 67)   DRY( 22, 68)   
    DRY( 22, 69)   DRY( 22, 70)   DRY( 22, 71)   DRY( 22, 72)   DRY( 22, 73)   
    DRY( 22, 74)   DRY( 22, 75)   DRY( 22, 76)   DRY( 22, 77)   DRY( 22, 78)   
    DRY( 22, 79)   DRY( 22, 80)   DRY( 22, 81)   DRY( 22, 82)   DRY( 22, 83)   
    DRY( 22, 84)   DRY( 22, 85)   DRY( 22, 86)   DRY( 22, 87)   DRY( 22, 88)   
    DRY( 22, 89)   DRY( 22, 90)   DRY( 22, 91)   DRY( 22, 92)   DRY( 22, 93)   
    DRY( 22, 94)   DRY( 22, 95)   DRY( 22, 96)   DRY( 22, 97)   DRY( 22, 98)   
    DRY( 22, 99)   DRY( 22,100)   DRY( 22,101)   DRY( 22,102)   DRY( 22,103)   
    DRY( 22,104)   DRY( 22,105)   DRY( 22,106)   DRY( 22,107)   DRY( 22,108)   
    DRY( 22,109)   DRY( 22,110)   DRY( 22,111)   DRY( 22,112)   DRY( 22,113)   
    DRY( 22,114)   DRY( 22,115)   DRY( 22,116)   DRY( 22,117)   DRY( 22,118)   
    DRY( 22,119)   DRY( 22,120)   DRY( 22,121)   DRY( 22,122)   DRY( 22,123)   
    DRY( 22,124)   DRY( 22,125)   DRY( 22,126)   DRY( 22,127)   DRY( 22,128)   
    DRY( 22,129)   DRY( 22,130)   DRY( 22,131)   DRY( 22,132)   DRY( 22,133)   
    DRY( 22,134)   DRY( 22,135)   DRY( 22,136)   DRY( 22,137)   DRY( 22,138)   
    DRY( 22,139)   DRY( 22,140)   DRY( 22,141)   DRY( 22,142)   DRY( 22,143)   
    DRY( 22,144)   DRY( 22,145)   DRY( 22,146)   DRY( 22,147)   DRY( 22,148)   
    DRY( 22,149)   DRY( 22,150)   DRY( 22,151)   DRY( 22,152)   DRY( 22,153)   
    DRY( 22,154)   DRY( 22,155)   DRY( 22,156)   DRY( 22,157)   DRY( 22,158)   
    DRY( 22,159)   DRY( 22,160)   DRY( 22,161)   DRY( 22,162)   DRY( 22,163)   
    DRY( 22,164)   DRY( 22,165)   DRY( 22,166)   DRY( 22,167)   DRY( 22,168)   
    DRY( 22,169)   DRY( 22,170)   DRY( 22,171)   DRY( 22,172)   DRY( 22,173)   
    DRY( 22,174)   DRY( 22,175)   DRY( 22,176)   DRY( 22,177)   DRY( 22,178)   
    DRY( 22,179)   DRY( 22,180)   DRY( 22,181)   DRY( 22,182)   DRY( 22,183)   
    DRY( 22,184)   DRY( 22,185)   DRY( 22,186)   DRY( 22,187)   DRY( 22,188)   
    DRY( 22,189)   DRY( 22,190)   DRY( 22,191)   DRY( 22,192)   DRY( 22,193)   
    DRY( 22,194)   DRY( 22,195)   DRY( 22,196)   DRY( 22,197)   DRY( 22,198)   
    DRY( 22,199)   DRY( 22,200)   DRY( 22,201)   DRY( 22,202)   DRY( 22,203)   
    DRY( 22,204)   DRY( 22,205)   DRY( 22,206)   DRY( 22,207)   DRY( 22,208)   
    DRY( 22,209)   DRY( 22,210)   DRY( 22,211)   DRY( 22,212)   DRY( 22,213)   
    DRY( 22,214)   DRY( 22,215)   DRY( 22,216)   DRY( 22,217)   DRY( 22,218)   
    DRY( 22,219)   DRY( 22,220)   DRY( 23,  1)   DRY( 23,  2)   DRY( 23,  3)   
    DRY( 23,  4)   DRY( 23,  5)   DRY( 23,  6)   DRY( 23,  7)   DRY( 23,  8)   
    DRY( 23,  9)   DRY( 23, 10)   DRY( 23, 11)   DRY( 23, 12)   DRY( 23, 13)   
    DRY( 23, 14)   DRY( 23, 15)   DRY( 23, 16)   DRY( 23, 17)   DRY( 23, 18)   
    DRY( 23, 19)   DRY( 23, 20)   DRY( 23, 21)   DRY( 23, 22)   DRY( 23, 23)   
    DRY( 23, 24)   DRY( 23, 25)   DRY( 23, 26)   DRY( 23, 27)   DRY( 23, 28)   
    DRY( 23, 29)   DRY( 23, 30)   DRY( 23, 31)   DRY( 23, 32)   DRY( 23, 33)   
    DRY( 23, 34)   DRY( 23, 35)   DRY( 23, 36)   DRY( 23, 37)   DRY( 23, 38)   
    DRY( 23, 39)   DRY( 23, 40)   DRY( 23, 41)   DRY( 23, 42)   DRY( 23, 43)   
    DRY( 23, 44)   DRY( 23, 45)   DRY( 23, 46)   DRY( 23, 47)   DRY( 23, 48)   
    DRY( 23, 49)   DRY( 23, 50)   DRY( 23, 51)   DRY( 23, 52)   DRY( 23, 53)   
    DRY( 23, 54)   DRY( 23, 55)   DRY( 23, 56)   DRY( 23, 57)   DRY( 23, 58)   
    DRY( 23, 59)   DRY( 23, 60)   DRY( 23, 61)   DRY( 23, 62)   DRY( 23, 63)   
    DRY( 23, 64)   DRY( 23, 65)   DRY( 23, 66)   DRY( 23, 67)   DRY( 23, 68)   
    DRY( 23, 69)   DRY( 23, 70)   DRY( 23, 71)   DRY( 23, 72)   DRY( 23, 73)   
    DRY( 23, 74)   DRY( 23, 75)   DRY( 23, 76)   DRY( 23, 77)   DRY( 23, 78)   
    DRY( 23, 79)   DRY( 23, 80)   DRY( 23, 81)   DRY( 23, 82)   DRY( 23, 83)   
    DRY( 23, 84)   DRY( 23, 85)   DRY( 23, 86)   DRY( 23, 87)   DRY( 23, 88)   
    DRY( 23, 89)   DRY( 23, 90)   DRY( 23, 91)   DRY( 23, 92)   DRY( 23, 93)   
    DRY( 23, 94)   DRY( 23, 95)   DRY( 23, 96)   DRY( 23, 97)   DRY( 23, 98)   
    DRY( 23, 99)   DRY( 23,100)   DRY( 23,101)   DRY( 23,102)   DRY( 23,103)   
    DRY( 23,104)   DRY( 23,105)   DRY( 23,106)   DRY( 23,107)   DRY( 23,108)   
    DRY( 23,109)   DRY( 23,110)   DRY( 23,111)   DRY( 23,112)   DRY( 23,113)   
    DRY( 23,114)   DRY( 23,115)   DRY( 23,116)   DRY( 23,117)   DRY( 23,118)   
    DRY( 23,119)   DRY( 23,120)   DRY( 23,121)   DRY( 23,122)   DRY( 23,123)   
    DRY( 23,124)   DRY( 23,125)   DRY( 23,126)   DRY( 23,127)   DRY( 23,128)   
    DRY( 23,129)   DRY( 23,130)   DRY( 23,131)   DRY( 23,132)   DRY( 23,133)   
    DRY( 23,134)   DRY( 23,135)   DRY( 23,136)   DRY( 23,137)   DRY( 23,138)   
    DRY( 23,139)   DRY( 23,140)   DRY( 23,141)   DRY( 23,142)   DRY( 23,143)   
    DRY( 23,144)   DRY( 23,145)   DRY( 23,146)   DRY( 23,147)   DRY( 23,148)   
    DRY( 23,149)   DRY( 23,150)   DRY( 23,151)   DRY( 23,152)   DRY( 23,153)   
    DRY( 23,154)   DRY( 23,155)   DRY( 23,156)   DRY( 23,157)   DRY( 23,158)   
    DRY( 23,159)   DRY( 23,160)   DRY( 23,161)   DRY( 23,162)   DRY( 23,163)   
    DRY( 23,164)   DRY( 23,165)   DRY( 23,166)   DRY( 23,167)   DRY( 23,168)   
    DRY( 23,169)   DRY( 23,170)   DRY( 23,171)   DRY( 23,172)   DRY( 23,173)   
    DRY( 23,174)   DRY( 23,175)   DRY( 23,176)   DRY( 23,177)   DRY( 23,178)   
    DRY( 23,179)   DRY( 23,180)   DRY( 23,181)   DRY( 23,182)   DRY( 23,183)   
    DRY( 23,184)   DRY( 23,185)   DRY( 23,186)   DRY( 23,187)   DRY( 23,188)   
    DRY( 23,189)   DRY( 23,190)   DRY( 23,191)   DRY( 23,192)   DRY( 23,193)   
    DRY( 23,194)   DRY( 23,195)   DRY( 23,196)   DRY( 23,197)   DRY( 23,198)   
    DRY( 23,199)   DRY( 23,200)   DRY( 23,201)   DRY( 23,202)   DRY( 23,203)   
    DRY( 23,204)   DRY( 23,205)   DRY( 23,206)   DRY( 23,207)   DRY( 23,208)   
    DRY( 23,209)   DRY( 23,210)   DRY( 23,211)   DRY( 23,212)   DRY( 23,213)   
    DRY( 23,214)   DRY( 23,215)   DRY( 23,216)   DRY( 23,217)   DRY( 23,218)   
    DRY( 23,219)   DRY( 23,220)   DRY( 24,  1)   DRY( 24,  2)   DRY( 24,  3)   
    DRY( 24,  4)   DRY( 24,  5)   DRY( 24,  6)   DRY( 24,  7)   DRY( 24,  8)   
    DRY( 24,  9)   DRY( 24, 10)   DRY( 24, 11)   DRY( 24, 12)   DRY( 24, 13)   
    DRY( 24, 14)   DRY( 24, 15)   DRY( 24, 16)   DRY( 24, 17)   DRY( 24, 18)   
    DRY( 24, 19)   DRY( 24, 20)   DRY( 24, 21)   DRY( 24, 22)   DRY( 24, 23)   
    DRY( 24, 24)   DRY( 24, 25)   DRY( 24, 26)   DRY( 24, 27)   DRY( 24, 28)   
    DRY( 24, 29)   DRY( 24, 30)   DRY( 24, 31)   DRY( 24, 32)   DRY( 24, 33)   
    DRY( 24, 34)   DRY( 24, 35)   DRY( 24, 36)   DRY( 24, 37)   DRY( 24, 38)   
    DRY( 24, 39)   DRY( 24, 40)   DRY( 24, 41)   DRY( 24, 42)   DRY( 24, 43)   
    DRY( 24, 44)   DRY( 24, 45)   DRY( 24, 46)   DRY( 24, 47)   DRY( 24, 48)   
    DRY( 24, 49)   DRY( 24, 50)   DRY( 24, 51)   DRY( 24, 52)   DRY( 24, 53)   
    DRY( 24, 54)   DRY( 24, 55)   DRY( 24, 56)   DRY( 24, 57)   DRY( 24, 58)   
    DRY( 24, 59)   DRY( 24, 60)   DRY( 24, 61)   DRY( 24, 62)   DRY( 24, 63)   
    DRY( 24, 64)   DRY( 24, 65)   DRY( 24, 66)   DRY( 24, 67)   DRY( 24, 68)   
    DRY( 24, 69)   DRY( 24, 70)   DRY( 24, 71)   DRY( 24, 72)   DRY( 24, 73)   
    DRY( 24, 74)   DRY( 24, 75)   DRY( 24, 76)   DRY( 24, 77)   DRY( 24, 78)   
    DRY( 24, 79)   DRY( 24, 80)   DRY( 24, 81)   DRY( 24, 82)   DRY( 24, 83)   
    DRY( 24, 84)   DRY( 24, 85)   DRY( 24, 86)   DRY( 24, 87)   DRY( 24, 88)   
    DRY( 24, 89)   DRY( 24, 90)   DRY( 24, 91)   DRY( 24, 92)   DRY( 24, 93)   
    DRY( 24, 94)   DRY( 24, 95)   DRY( 24, 96)   DRY( 24, 97)   DRY( 24, 98)   
    DRY( 24, 99)   DRY( 24,100)   DRY( 24,101)   DRY( 24,102)   DRY( 24,103)   
    DRY( 24,104)   DRY( 24,105)   DRY( 24,106)   DRY( 24,107)   DRY( 24,108)   
    DRY( 24,109)   DRY( 24,110)   DRY( 24,111)   DRY( 24,112)   DRY( 24,113)   
    DRY( 24,114)   DRY( 24,115)   DRY( 24,116)   DRY( 24,117)   DRY( 24,118)   
    DRY( 24,119)   DRY( 24,120)   DRY( 24,121)   DRY( 24,122)   DRY( 24,123)   
    DRY( 24,124)   DRY( 24,125)   DRY( 24,126)   DRY( 24,127)   DRY( 24,128)   
    DRY( 24,129)   DRY( 24,130)   DRY( 24,131)   DRY( 24,132)   DRY( 24,133)   
    DRY( 24,134)   DRY( 24,135)   DRY( 24,136)   DRY( 24,137)   DRY( 24,138)   
    DRY( 24,139)   DRY( 24,140)   DRY( 24,141)   DRY( 24,142)   DRY( 24,143)   
    DRY( 24,144)   DRY( 24,145)   DRY( 24,146)   DRY( 24,147)   DRY( 24,148)   
    DRY( 24,149)   DRY( 24,150)   DRY( 24,151)   DRY( 24,152)   DRY( 24,153)   
    DRY( 24,154)   DRY( 24,155)   DRY( 24,156)   DRY( 24,157)   DRY( 24,158)   
    DRY( 24,159)   DRY( 24,160)   DRY( 24,161)   DRY( 24,162)   DRY( 24,163)   
    DRY( 24,164)   DRY( 24,165)   DRY( 24,166)   DRY( 24,167)   DRY( 24,168)   
    DRY( 24,169)   DRY( 24,170)   DRY( 24,171)   DRY( 24,172)   DRY( 24,173)   
    DRY( 24,174)   DRY( 24,175)   DRY( 24,176)   DRY( 24,177)   DRY( 24,178)   
    DRY( 24,179)   DRY( 24,180)   DRY( 24,181)   DRY( 24,182)   DRY( 24,183)   
    DRY( 24,184)   DRY( 24,185)   DRY( 24,186)   DRY( 24,187)   DRY( 24,188)   
    DRY( 24,189)   DRY( 24,190)   DRY( 24,191)   DRY( 24,192)   DRY( 24,193)   
    DRY( 24,194)   DRY( 24,195)   DRY( 24,196)   DRY( 24,197)   DRY( 24,198)   
    DRY( 24,199)   DRY( 24,200)   DRY( 24,201)   DRY( 24,202)   DRY( 24,203)   
    DRY( 24,204)   DRY( 24,205)   DRY( 24,206)   DRY( 24,207)   DRY( 24,208)   
    DRY( 24,209)   DRY( 24,210)   DRY( 24,211)   DRY( 24,212)   DRY( 24,213)   
    DRY( 24,214)   DRY( 24,215)   DRY( 24,216)   DRY( 24,217)   DRY( 24,218)   
    DRY( 24,219)   DRY( 24,220)   DRY( 25,  1)   DRY( 25,  2)   DRY( 25,  3)   
    DRY( 25,  4)   DRY( 25,  5)   DRY( 25,  6)   DRY( 25,  7)   DRY( 25,  8)   
    DRY( 25,  9)   DRY( 25, 10)   DRY( 25, 11)   DRY( 25, 12)   DRY( 25, 13)   
    DRY( 25, 14)   DRY( 25, 15)   DRY( 25, 16)   DRY( 25, 17)   DRY( 25, 18)   
    DRY( 25, 19)   DRY( 25, 20)   DRY( 25, 21)   DRY( 25, 22)   DRY( 25, 23)   
    DRY( 25, 24)   DRY( 25, 25)   DRY( 25, 26)   DRY( 25, 27)   DRY( 25, 28)   
    DRY( 25, 29)   DRY( 25, 30)   DRY( 25, 31)   DRY( 25, 32)   DRY( 25, 33)   
    DRY( 25, 34)   DRY( 25, 35)   DRY( 25, 36)   DRY( 25, 37)   DRY( 25, 38)   
    DRY( 25, 39)   DRY( 25, 40)   DRY( 25, 41)   DRY( 25, 42)   DRY( 25, 43)   
    DRY( 25, 44)   DRY( 25, 45)   DRY( 25, 46)   DRY( 25, 47)   DRY( 25, 48)   
    DRY( 25, 49)   DRY( 25, 50)   DRY( 25, 51)   DRY( 25, 52)   DRY( 25, 53)   
    DRY( 25, 54)   DRY( 25, 55)   DRY( 25, 56)   DRY( 25, 57)   DRY( 25, 58)   
    DRY( 25, 59)   DRY( 25, 60)   DRY( 25, 61)   DRY( 25, 62)   DRY( 25, 63)   
    DRY( 25, 64)   DRY( 25, 65)   DRY( 25, 66)   DRY( 25, 67)   DRY( 25, 68)   
    DRY( 25, 69)   DRY( 25, 70)   DRY( 25, 71)   DRY( 25, 72)   DRY( 25, 73)   
    DRY( 25, 74)   DRY( 25, 75)   DRY( 25, 76)   DRY( 25, 77)   DRY( 25, 78)   
    DRY( 25, 79)   DRY( 25, 80)   DRY( 25, 81)   DRY( 25, 82)   DRY( 25, 83)   
    DRY( 25, 84)   DRY( 25, 85)   DRY( 25, 86)   DRY( 25, 87)   DRY( 25, 88)   
    DRY( 25, 89)   DRY( 25, 90)   DRY( 25, 91)   DRY( 25, 92)   DRY( 25, 93)   
    DRY( 25, 94)   DRY( 25, 95)   DRY( 25, 96)   DRY( 25, 97)   DRY( 25, 98)   
    DRY( 25, 99)   DRY( 25,100)   DRY( 25,101)   DRY( 25,102)   DRY( 25,103)   
    DRY( 25,104)   DRY( 25,105)   DRY( 25,106)   DRY( 25,107)   DRY( 25,108)   
    DRY( 25,109)   DRY( 25,110)   DRY( 25,111)   DRY( 25,112)   DRY( 25,113)   
    DRY( 25,114)   DRY( 25,115)   DRY( 25,116)   DRY( 25,117)   DRY( 25,118)   
    DRY( 25,119)   DRY( 25,120)   DRY( 25,121)   DRY( 25,122)   DRY( 25,123)   
    DRY( 25,124)   DRY( 25,125)   DRY( 25,126)   DRY( 25,127)   DRY( 25,128)   
    DRY( 25,129)   DRY( 25,130)   DRY( 25,131)   DRY( 25,132)   DRY( 25,133)   
    DRY( 25,134)   DRY( 25,135)   DRY( 25,136)   DRY( 25,137)   DRY( 25,138)   
    DRY( 25,139)   DRY( 25,140)   DRY( 25,141)   DRY( 25,142)   DRY( 25,143)   
    DRY( 25,144)   DRY( 25,145)   DRY( 25,146)   DRY( 25,147)   DRY( 25,148)   
    DRY( 25,149)   DRY( 25,150)   DRY( 25,151)   DRY( 25,152)   DRY( 25,153)   
    DRY( 25,154)   DRY( 25,155)   DRY( 25,156)   DRY( 25,157)   DRY( 25,158)   
    DRY( 25,159)   DRY( 25,160)   DRY( 25,161)   DRY( 25,162)   DRY( 25,163)   
    DRY( 25,164)   DRY( 25,165)   DRY( 25,166)   DRY( 25,167)   DRY( 25,168)   
    DRY( 25,169)   DRY( 25,170)   DRY( 25,171)   DRY( 25,172)   DRY( 25,173)   
    DRY( 25,174)   DRY( 25,175)   DRY( 25,176)   DRY( 25,177)   DRY( 25,178)   
    DRY( 25,179)   DRY( 25,180)   DRY( 25,181)   DRY( 25,182)   DRY( 25,183)   
    DRY( 25,184)   DRY( 25,185)   DRY( 25,186)   DRY( 25,187)   DRY( 25,188)   
    DRY( 25,189)   DRY( 25,190)   DRY( 25,191)   DRY( 25,192)   DRY( 25,193)   
    DRY( 25,194)   DRY( 25,195)   DRY( 25,196)   DRY( 25,197)   DRY( 25,198)   
    DRY( 25,199)   DRY( 25,200)   DRY( 25,201)   DRY( 25,202)   DRY( 25,203)   
    DRY( 25,204)   DRY( 25,205)   DRY( 25,206)   DRY( 25,207)   DRY( 25,208)   
    DRY( 25,209)   DRY( 25,210)   DRY( 25,211)   DRY( 25,212)   DRY( 25,213)   
    DRY( 25,214)   DRY( 25,215)   DRY( 25,216)   DRY( 25,217)   DRY( 25,218)   
    DRY( 25,219)   DRY( 25,220)   DRY( 26,  1)   DRY( 26,  2)   DRY( 26,  3)   
    DRY( 26,  4)   DRY( 26,  5)   DRY( 26,  6)   DRY( 26,  7)   DRY( 26,  8)   
    DRY( 26,  9)   DRY( 26, 10)   DRY( 26, 11)   DRY( 26, 12)   DRY( 26, 13)   
    DRY( 26, 14)   DRY( 26, 15)   DRY( 26, 16)   DRY( 26, 17)   DRY( 26, 18)   
    DRY( 26, 19)   DRY( 26, 20)   DRY( 26, 21)   DRY( 26, 22)   DRY( 26, 23)   
    DRY( 26, 24)   DRY( 26, 25)   DRY( 26, 26)   DRY( 26, 27)   DRY( 26, 28)   
    DRY( 26, 29)   DRY( 26, 30)   DRY( 26, 31)   DRY( 26, 32)   DRY( 26, 33)   
    DRY( 26, 34)   DRY( 26, 35)   DRY( 26, 36)   DRY( 26, 37)   DRY( 26, 38)   
    DRY( 26, 39)   DRY( 26, 40)   DRY( 26, 41)   DRY( 26, 42)   DRY( 26, 43)   
    DRY( 26, 44)   DRY( 26, 45)   DRY( 26, 46)   DRY( 26, 47)   DRY( 26, 48)   
    DRY( 26, 49)   DRY( 26, 50)   DRY( 26, 51)   DRY( 26, 52)   DRY( 26, 53)   
    DRY( 26, 54)   DRY( 26, 55)   DRY( 26, 56)   DRY( 26, 57)   DRY( 26, 58)   
    DRY( 26, 59)   DRY( 26, 60)   DRY( 26, 61)   DRY( 26, 62)   DRY( 26, 63)   
    DRY( 26, 64)   DRY( 26, 65)   DRY( 26, 66)   DRY( 26, 67)   DRY( 26, 68)   
    DRY( 26, 69)   DRY( 26, 70)   DRY( 26, 71)   DRY( 26, 72)   DRY( 26, 73)   
    DRY( 26, 74)   DRY( 26, 75)   DRY( 26, 76)   DRY( 26, 77)   DRY( 26, 78)   
    DRY( 26, 79)   DRY( 26, 80)   DRY( 26, 81)   DRY( 26, 82)   DRY( 26, 83)   
    DRY( 26, 84)   DRY( 26, 85)   DRY( 26, 86)   DRY( 26, 87)   DRY( 26, 88)   
    DRY( 26, 89)   DRY( 26, 90)   DRY( 26, 91)   DRY( 26, 92)   DRY( 26, 93)   
    DRY( 26, 94)   DRY( 26, 95)   DRY( 26, 96)   DRY( 26, 97)   DRY( 26, 98)   
    DRY( 26, 99)   DRY( 26,100)   DRY( 26,101)   DRY( 26,102)   DRY( 26,103)   
    DRY( 26,104)   DRY( 26,105)   DRY( 26,106)   DRY( 26,107)   DRY( 26,108)   
    DRY( 26,109)   DRY( 26,110)   DRY( 26,111)   DRY( 26,112)   DRY( 26,113)   
    DRY( 26,114)   DRY( 26,115)   DRY( 26,116)   DRY( 26,117)   DRY( 26,118)   
    DRY( 26,119)   DRY( 26,120)   DRY( 26,121)   DRY( 26,122)   DRY( 26,123)   
    DRY( 26,124)   DRY( 26,125)   DRY( 26,126)   DRY( 26,127)   DRY( 26,128)   
    DRY( 26,129)   DRY( 26,130)   DRY( 26,131)   DRY( 26,132)   DRY( 26,133)   
    DRY( 26,134)   DRY( 26,135)   DRY( 26,136)   DRY( 26,137)   DRY( 26,138)   
    DRY( 26,139)   DRY( 26,140)   DRY( 26,141)   DRY( 26,142)   DRY( 26,143)   
    DRY( 26,144)   DRY( 26,145)   DRY( 26,146)   DRY( 26,147)   DRY( 26,148)   
    DRY( 26,149)   DRY( 26,150)   DRY( 26,151)   DRY( 26,152)   DRY( 26,153)   
    DRY( 26,154)   DRY( 26,155)   DRY( 26,156)   DRY( 26,157)   DRY( 26,158)   
    DRY( 26,159)   DRY( 26,160)   DRY( 26,161)   DRY( 26,162)   DRY( 26,163)   
    DRY( 26,164)   DRY( 26,165)   DRY( 26,166)   DRY( 26,167)   DRY( 26,168)   
    DRY( 26,169)   DRY( 26,170)   DRY( 26,171)   DRY( 26,172)   DRY( 26,173)   
    DRY( 26,174)   DRY( 26,175)   DRY( 26,176)   DRY( 26,177)   DRY( 26,178)   
    DRY( 26,179)   DRY( 26,180)   DRY( 26,181)   DRY( 26,182)   DRY( 26,183)   
    DRY( 26,184)   DRY( 26,185)   DRY( 26,186)   DRY( 26,187)   DRY( 26,188)   
    DRY( 26,189)   DRY( 26,190)   DRY( 26,191)   DRY( 26,192)   DRY( 26,193)   
    DRY( 26,194)   DRY( 26,195)   DRY( 26,196)   DRY( 26,197)   DRY( 26,198)   
    DRY( 26,199)   DRY( 26,200)   DRY( 26,201)   DRY( 26,202)   DRY( 26,203)   
    DRY( 26,204)   DRY( 26,205)   DRY( 26,206)   DRY( 26,207)   DRY( 26,208)   
    DRY( 26,209)   DRY( 26,210)   DRY( 26,211)   DRY( 26,212)   DRY( 26,213)   
    DRY( 26,214)   DRY( 26,215)   DRY( 26,216)   DRY( 26,217)   DRY( 26,218)   
    DRY( 26,219)   DRY( 26,220)   DRY( 27,  1)   DRY( 27,  2)   DRY( 27,  3)   
    DRY( 27,  4)   DRY( 27,  5)   DRY( 27,  6)   DRY( 27,  7)   DRY( 27,  8)   
    DRY( 27,  9)   DRY( 27, 10)   DRY( 27, 11)   DRY( 27, 12)   DRY( 27, 13)   
    DRY( 27, 14)   DRY( 27, 15)   DRY( 27, 16)   DRY( 27, 17)   DRY( 27, 18)   
    DRY( 27, 19)   DRY( 27, 20)   DRY( 27, 21)   DRY( 27, 22)   DRY( 27, 23)   
    DRY( 27, 24)   DRY( 27, 25)   DRY( 27, 26)   DRY( 27, 27)   DRY( 27, 28)   
    DRY( 27, 29)   DRY( 27, 30)   DRY( 27, 31)   DRY( 27, 32)   DRY( 27, 33)   
    DRY( 27, 34)   DRY( 27, 35)   DRY( 27, 36)   DRY( 27, 37)   DRY( 27, 38)   
    DRY( 27, 39)   DRY( 27, 40)   DRY( 27, 41)   DRY( 27, 42)   DRY( 27, 43)   
    DRY( 27, 44)   DRY( 27, 45)   DRY( 27, 46)   DRY( 27, 47)   DRY( 27, 48)   
    DRY( 27, 49)   DRY( 27, 50)   DRY( 27, 51)   DRY( 27, 52)   DRY( 27, 53)   
    DRY( 27, 54)   DRY( 27, 55)   DRY( 27, 56)   DRY( 27, 57)   DRY( 27, 58)   
    DRY( 27, 59)   DRY( 27, 60)   DRY( 27, 61)   DRY( 27, 62)   DRY( 27, 63)   
    DRY( 27, 64)   DRY( 27, 65)   DRY( 27, 66)   DRY( 27, 67)   DRY( 27, 68)   
    DRY( 27, 69)   DRY( 27, 70)   DRY( 27, 71)   DRY( 27, 72)   DRY( 27, 73)   
    DRY( 27, 74)   DRY( 27, 75)   DRY( 27, 76)   DRY( 27, 77)   DRY( 27, 78)   
    DRY( 27, 79)   DRY( 27, 80)   DRY( 27, 81)   DRY( 27, 82)   DRY( 27, 83)   
    DRY( 27, 84)   DRY( 27, 85)   DRY( 27, 86)   DRY( 27, 87)   DRY( 27, 88)   
    DRY( 27, 89)   DRY( 27, 90)   DRY( 27, 91)   DRY( 27, 92)   DRY( 27, 93)   
    DRY( 27, 94)   DRY( 27, 95)   DRY( 27, 96)   DRY( 27, 97)   DRY( 27, 98)   
    DRY( 27, 99)   DRY( 27,100)   DRY( 27,101)   DRY( 27,102)   DRY( 27,103)   
    DRY( 27,104)   DRY( 27,105)   DRY( 27,106)   DRY( 27,107)   DRY( 27,108)   
    DRY( 27,109)   DRY( 27,110)   DRY( 27,111)   DRY( 27,112)   DRY( 27,113)   
    DRY( 27,114)   DRY( 27,115)   DRY( 27,116)   DRY( 27,117)   DRY( 27,118)   
    DRY( 27,119)   DRY( 27,120)   DRY( 27,121)   DRY( 27,122)   DRY( 27,123)   
    DRY( 27,124)   DRY( 27,125)   DRY( 27,126)   DRY( 27,127)   DRY( 27,128)   
    DRY( 27,129)   DRY( 27,130)   DRY( 27,131)   DRY( 27,132)   DRY( 27,133)   
    DRY( 27,134)   DRY( 27,135)   DRY( 27,136)   DRY( 27,137)   DRY( 27,138)   
    DRY( 27,139)   DRY( 27,140)   DRY( 27,141)   DRY( 27,142)   DRY( 27,143)   
    DRY( 27,144)   DRY( 27,145)   DRY( 27,146)   DRY( 27,147)   DRY( 27,148)   
    DRY( 27,149)   DRY( 27,150)   DRY( 27,151)   DRY( 27,152)   DRY( 27,153)   
    DRY( 27,154)   DRY( 27,155)   DRY( 27,156)   DRY( 27,157)   DRY( 27,158)   
    DRY( 27,159)   DRY( 27,160)   DRY( 27,161)   DRY( 27,162)   DRY( 27,163)   
    DRY( 27,164)   DRY( 27,165)   DRY( 27,166)   DRY( 27,167)   DRY( 27,168)   
    DRY( 27,169)   DRY( 27,170)   DRY( 27,171)   DRY( 27,172)   DRY( 27,173)   
    DRY( 27,174)   DRY( 27,175)   DRY( 27,176)   DRY( 27,177)   DRY( 27,178)   
    DRY( 27,179)   DRY( 27,180)   DRY( 27,181)   DRY( 27,182)   DRY( 27,183)   
    DRY( 27,184)   DRY( 27,185)   DRY( 27,186)   DRY( 27,187)   DRY( 27,188)   
    DRY( 27,189)   DRY( 27,190)   DRY( 27,191)   DRY( 27,192)   DRY( 27,193)   
    DRY( 27,194)   DRY( 27,195)   DRY( 27,196)   DRY( 27,197)   DRY( 27,198)   
    DRY( 27,199)   DRY( 27,200)   DRY( 27,201)   DRY( 27,202)   DRY( 27,203)   
    DRY( 27,204)   DRY( 27,205)   DRY( 27,206)   DRY( 27,207)   DRY( 27,208)   
    DRY( 27,209)   DRY( 27,210)   DRY( 27,211)   DRY( 27,212)   DRY( 27,213)   
    DRY( 27,214)   DRY( 27,215)   DRY( 27,216)   DRY( 27,217)   DRY( 27,218)   
    DRY( 27,219)   DRY( 27,220)   DRY( 28,  1)   DRY( 28,  2)   DRY( 28,  3)   
    DRY( 28,  4)   DRY( 28,  5)   DRY( 28,  6)   DRY( 28,  7)   DRY( 28,  8)   
    DRY( 28,  9)   DRY( 28, 10)   DRY( 28, 11)   DRY( 28, 12)   DRY( 28, 13)   
    DRY( 28, 14)   DRY( 28, 15)   DRY( 28, 16)   DRY( 28, 17)   DRY( 28, 18)   
    DRY( 28, 19)   DRY( 28, 20)   DRY( 28, 21)   DRY( 28, 22)   DRY( 28, 23)   
    DRY( 28, 24)   DRY( 28, 25)   DRY( 28, 26)   DRY( 28, 27)   DRY( 28, 28)   
    DRY( 28, 29)   DRY( 28, 30)   DRY( 28, 31)   DRY( 28, 32)   DRY( 28, 33)   
    DRY( 28, 34)   DRY( 28, 35)   DRY( 28, 36)   DRY( 28, 37)   DRY( 28, 38)   
    DRY( 28, 39)   DRY( 28, 40)   DRY( 28, 41)   DRY( 28, 42)   DRY( 28, 43)   
    DRY( 28, 44)   DRY( 28, 45)   DRY( 28, 46)   DRY( 28, 47)   DRY( 28, 48)   
    DRY( 28, 49)   DRY( 28, 50)   DRY( 28, 51)   DRY( 28, 52)   DRY( 28, 53)   
    DRY( 28, 54)   DRY( 28, 55)   DRY( 28, 56)   DRY( 28, 57)   DRY( 28, 58)   
    DRY( 28, 59)   DRY( 28, 60)   DRY( 28, 61)   DRY( 28, 62)   DRY( 28, 63)   
    DRY( 28, 64)   DRY( 28, 65)   DRY( 28, 66)   DRY( 28, 67)   DRY( 28, 68)   
    DRY( 28, 69)   DRY( 28, 70)   DRY( 28, 71)   DRY( 28, 72)   DRY( 28, 73)   
    DRY( 28, 74)   DRY( 28, 75)   DRY( 28, 76)   DRY( 28, 77)   DRY( 28, 78)   
    DRY( 28, 79)   DRY( 28, 80)   DRY( 28, 81)   DRY( 28, 82)   DRY( 28, 83)   
    DRY( 28, 84)   DRY( 28, 85)   DRY( 28, 86)   DRY( 28, 87)   DRY( 28, 88)   
    DRY( 28, 89)   DRY( 28, 90)   DRY( 28, 91)   DRY( 28, 92)   DRY( 28, 93)   
    DRY( 28, 94)   DRY( 28, 95)   DRY( 28, 96)   DRY( 28, 97)   DRY( 28, 98)   
    DRY( 28, 99)   DRY( 28,100)   DRY( 28,101)   DRY( 28,102)   DRY( 28,103)   
    DRY( 28,104)   DRY( 28,105)   DRY( 28,106)   DRY( 28,107)   DRY( 28,108)   
    DRY( 28,109)   DRY( 28,110)   DRY( 28,111)   DRY( 28,112)   DRY( 28,113)   
    DRY( 28,114)   DRY( 28,115)   DRY( 28,116)   DRY( 28,117)   DRY( 28,118)   
    DRY( 28,119)   DRY( 28,120)   DRY( 28,121)   DRY( 28,122)   DRY( 28,123)   
    DRY( 28,124)   DRY( 28,125)   DRY( 28,126)   DRY( 28,127)   DRY( 28,128)   
    DRY( 28,129)   DRY( 28,130)   DRY( 28,131)   DRY( 28,132)   DRY( 28,133)   
    DRY( 28,134)   DRY( 28,135)   DRY( 28,136)   DRY( 28,137)   DRY( 28,138)   
    DRY( 28,139)   DRY( 28,140)   DRY( 28,141)   DRY( 28,142)   DRY( 28,143)   
    DRY( 28,144)   DRY( 28,145)   DRY( 28,146)   DRY( 28,147)   DRY( 28,148)   
    DRY( 28,149)   DRY( 28,150)   DRY( 28,151)   DRY( 28,152)   DRY( 28,153)   
    DRY( 28,154)   DRY( 28,155)   DRY( 28,156)   DRY( 28,157)   DRY( 28,158)   
    DRY( 28,159)   DRY( 28,160)   DRY( 28,161)   DRY( 28,162)   DRY( 28,163)   
    DRY( 28,164)   DRY( 28,165)   DRY( 28,166)   DRY( 28,167)   DRY( 28,168)   
    DRY( 28,169)   DRY( 28,170)   DRY( 28,171)   DRY( 28,172)   DRY( 28,173)   
    DRY( 28,174)   DRY( 28,175)   DRY( 28,176)   DRY( 28,177)   DRY( 28,178)   
    DRY( 28,179)   DRY( 28,180)   DRY( 28,181)   DRY( 28,182)   DRY( 28,183)   
    DRY( 28,184)   DRY( 28,185)   DRY( 28,186)   DRY( 28,187)   DRY( 28,188)   
    DRY( 28,189)   DRY( 28,190)   DRY( 28,191)   DRY( 28,192)   DRY( 28,193)   
    DRY( 28,194)   DRY( 28,195)   DRY( 28,196)   DRY( 28,197)   DRY( 28,198)   
    DRY( 28,199)   DRY( 28,200)   DRY( 28,201)   DRY( 28,202)   DRY( 28,203)   
    DRY( 28,204)   DRY( 28,205)   DRY( 28,206)   DRY( 28,207)   DRY( 28,208)   
    DRY( 28,209)   DRY( 28,210)   DRY( 28,211)   DRY( 28,212)   DRY( 28,213)   
    DRY( 28,214)   DRY( 28,215)   DRY( 28,216)   DRY( 28,217)   DRY( 28,218)   
    DRY( 28,219)   DRY( 28,220)   

 CELL CONVERSIONS FOR ITER.=  2  LAYER=  9  STEP=  1  PERIOD=   1   (ROW,COL)
    DRY( 16,  1)   DRY( 16,  2)   DRY( 16,  3)   DRY( 17,  1)   DRY( 17,  2)   
    DRY( 17,  3)   DRY( 17,  4)   DRY( 17,  5)   DRY( 17,  6)   DRY( 17,  7)   
    DRY( 17,  8)   DRY( 17,  9)   DRY( 17, 10)   DRY( 18,  1)   DRY( 18,  2)   
    DRY( 18,  3)   DRY( 18,  4)   DRY( 18,  5)   DRY( 18,  6)   DRY( 18,  7)   
    DRY( 18,  8)   DRY( 18,  9)   DRY( 18, 10)   DRY( 18, 11)   DRY( 18, 12)   
    DRY( 18, 13)   DRY( 18, 14)   DRY( 18, 15)   DRY( 18, 16)   DRY( 18, 17)   
    DRY( 18, 18)   DRY( 18, 19)   DRY( 18, 20)   DRY( 18, 21)   DRY( 18, 22)   
    DRY( 18, 23)   DRY( 18, 24)   DRY( 18, 25)   DRY( 18, 26)   DRY( 18, 27)   
    DRY( 18, 28)   DRY( 18, 29)   DRY( 18, 30)   DRY( 18, 31)   DRY( 18, 32)   
    DRY( 19,  1)   DRY( 19,  2)   DRY( 19,  3)   DRY( 19,  4)   DRY( 19,  5)   
    DRY( 19,  6)   DRY( 19,  7)   DRY( 19,  8)   DRY( 19,  9)   DRY( 19, 10)   
    DRY( 19, 11)   DRY( 19, 12)   DRY( 19, 13)   DRY( 19, 14)   DRY( 19, 15)   
    DRY( 19, 16)   DRY( 19, 17)   DRY( 19, 18)   DRY( 19, 19)   DRY( 19, 20)   
    DRY( 19, 21)   DRY( 19, 22)   DRY( 19, 23)   DRY( 19, 24)   DRY( 19, 25)   
    DRY( 19, 26)   DRY( 19, 27)   DRY( 19, 28)   DRY( 19, 29)   DRY( 19, 30)   
    DRY( 19, 31)   DRY( 19, 32)   DRY( 19, 33)   DRY( 19, 34)   DRY( 19, 35)   
    DRY( 19, 36)   DRY( 19, 37)   DRY( 19, 38)   DRY( 19, 39)   DRY( 19, 40)   
    DRY( 19, 41)   DRY( 19, 42)   DRY( 19, 43)   DRY( 19,203)   DRY( 19,204)   
    DRY( 19,205)   DRY( 19,206)   DRY( 20,  1)   DRY( 20,  2)   DRY( 20,  3)   
    DRY( 20,  4)   DRY( 20,  5)   DRY( 20,  6)   DRY( 20,  7)   DRY( 20,  8)   
    DRY( 20,  9)   DRY( 20, 10)   DRY( 20, 11)   DRY( 20, 12)   DRY( 20, 13)   
    DRY( 20, 14)   DRY( 20, 15)   DRY( 20, 16)   DRY( 20, 17)   DRY( 20, 18)   
    DRY( 20, 19)   DRY( 20, 20)   DRY( 20, 21)   DRY( 20, 22)   DRY( 20, 23)   
    DRY( 20, 24)   DRY( 20, 25)   DRY( 20, 26)   DRY( 20, 27)   DRY( 20, 28)   
    DRY( 20, 29)   DRY( 20, 30)   DRY( 20, 31)   DRY( 20, 32)   DRY( 20, 33)   
    DRY( 20, 34)   DRY( 20, 35)   DRY( 20, 36)   DRY( 20, 37)   DRY( 20, 38)   
    DRY( 20, 39)   DRY( 20, 40)   DRY( 20, 41)   DRY( 20, 42)   DRY( 20, 43)   
    DRY( 20, 44)   DRY( 20, 45)   DRY( 20, 46)   DRY( 20, 47)   DRY( 20, 48)   
    DRY( 20, 49)   DRY( 20, 50)   DRY( 20, 51)   DRY( 20, 52)   DRY( 20, 53)   
    DRY( 20, 54)   DRY( 20, 55)   DRY( 20, 56)   DRY( 20, 57)   DRY( 20, 58)   
    DRY( 20, 59)   DRY( 20, 60)   DRY( 20, 61)   DRY( 20, 62)   DRY( 20, 63)   
    DRY( 20, 64)   DRY( 20, 65)   DRY( 20, 66)   DRY( 20, 67)   DRY( 20, 68)   
    DRY( 20, 69)   DRY( 20, 70)   DRY( 20, 71)   DRY( 20, 72)   DRY( 20, 73)   
    DRY( 20, 74)   DRY( 20, 75)   DRY( 20, 76)   DRY( 20, 77)   DRY( 20, 78)   
    DRY( 20, 79)   DRY( 20, 80)   DRY( 20, 81)   DRY( 20, 82)   DRY( 20, 83)   
    DRY( 20, 84)   DRY( 20, 85)   DRY( 20, 86)   DRY( 20, 87)   DRY( 20, 88)   
    DRY( 20, 89)   DRY( 20, 90)   DRY( 20, 91)   DRY( 20, 92)   DRY( 20, 93)   
    DRY( 20, 94)   DRY( 20, 95)   DRY( 20, 96)   DRY( 20, 97)   DRY( 20, 98)   
    DRY( 20, 99)   DRY( 20,100)   DRY( 20,101)   DRY( 20,146)   DRY( 20,147)   
    DRY( 20,148)   DRY( 20,149)   DRY( 20,169)   DRY( 20,202)   DRY( 20,203)   
    DRY( 20,204)   DRY( 20,205)   DRY( 20,206)   DRY( 20,207)   DRY( 20,208)   
    DRY( 21,  1)   DRY( 21,  2)   DRY( 21,  3)   DRY( 21,  4)   DRY( 21,  5)   
    DRY( 21,  6)   DRY( 21,  7)   DRY( 21,  8)   DRY( 21,  9)   DRY( 21, 10)   
    DRY( 21, 11)   DRY( 21, 12)   DRY( 21, 13)   DRY( 21, 14)   DRY( 21, 15)   
    DRY( 21, 16)   DRY( 21, 17)   DRY( 21, 18)   DRY( 21, 19)   DRY( 21, 20)   
    DRY( 21, 21)   DRY( 21, 22)   DRY( 21, 23)   DRY( 21, 24)   DRY( 21, 25)   
    DRY( 21, 26)   DRY( 21, 27)   DRY( 21, 28)   DRY( 21, 29)   DRY( 21, 30)   
    DRY( 21, 31)   DRY( 21, 32)   DRY( 21, 33)   DRY( 21, 34)   DRY( 21, 35)   
    DRY( 21, 36)   DRY( 21, 37)   DRY( 21, 38)   DRY( 21, 39)   DRY( 21, 40)   
    DRY( 21, 41)   DRY( 21, 42)   DRY( 21, 43)   DRY( 21, 44)   DRY( 21, 45)   
    DRY( 21, 46)   DRY( 21, 47)   DRY( 21, 48)   DRY( 21, 49)   DRY( 21, 50)   
    DRY( 21, 51)   DRY( 21, 52)   DRY( 21, 53)   DRY( 21, 54)   DRY( 21, 55)   
    DRY( 21, 56)   DRY( 21, 57)   DRY( 21, 58)   DRY( 21, 59)   DRY( 21, 60)   
    DRY( 21, 61)   DRY( 21, 62)   DRY( 21, 63)   DRY( 21, 64)   DRY( 21, 65)   
    DRY( 21, 66)   DRY( 21, 67)   DRY( 21, 68)   DRY( 21, 69)   DRY( 21, 70)   
    DRY( 21, 71)   DRY( 21, 72)   DRY( 21, 73)   DRY( 21, 74)   DRY( 21, 75)   
    DRY( 21, 76)   DRY( 21, 77)   DRY( 21, 78)   DRY( 21, 79)   DRY( 21, 80)   
    DRY( 21, 81)   DRY( 21, 82)   DRY( 21, 83)   DRY( 21, 84)   DRY( 21, 85)   
    DRY( 21, 86)   DRY( 21, 87)   DRY( 21, 88)   DRY( 21, 89)   DRY( 21, 90)   
    DRY( 21, 91)   DRY( 21, 92)   DRY( 21, 93)   DRY( 21, 94)   DRY( 21, 95)   
    DRY( 21, 96)   DRY( 21, 97)   DRY( 21, 98)   DRY( 21, 99)   DRY( 21,100)   
    DRY( 21,101)   DRY( 21,102)   DRY( 21,103)   DRY( 21,104)   DRY( 21,105)   
    DRY( 21,106)   DRY( 21,107)   DRY( 21,108)   DRY( 21,109)   DRY( 21,110)   
    DRY( 21,111)   DRY( 21,112)   DRY( 21,113)   DRY( 21,114)   DRY( 21,115)   
    DRY( 21,116)   DRY( 21,117)   DRY( 21,118)   DRY( 21,119)   DRY( 21,120)   
    DRY( 21,121)   DRY( 21,122)   DRY( 21,123)   DRY( 21,124)   DRY( 21,125)   
    DRY( 21,126)   DRY( 21,127)   DRY( 21,128)   DRY( 21,129)   DRY( 21,130)   
    DRY( 21,131)   DRY( 21,132)   DRY( 21,133)   DRY( 21,134)   DRY( 21,135)   
    DRY( 21,136)   DRY( 21,137)   DRY( 21,138)   DRY( 21,139)   DRY( 21,140)   
    DRY( 21,141)   DRY( 21,142)   DRY( 21,143)   DRY( 21,144)   DRY( 21,145)   
    DRY( 21,146)   DRY( 21,147)   DRY( 21,148)   DRY( 21,149)   DRY( 21,150)   
    DRY( 21,151)   DRY( 21,152)   DRY( 21,153)   DRY( 21,154)   DRY( 21,155)   
    DRY( 21,156)   DRY( 21,157)   DRY( 21,158)   DRY( 21,160)   DRY( 21,161)   
    DRY( 21,162)   DRY( 21,163)   DRY( 21,164)   DRY( 21,165)   DRY( 21,166)   
    DRY( 21,167)   DRY( 21,168)   DRY( 21,169)   DRY( 21,170)   DRY( 21,171)   
    DRY( 21,172)   DRY( 21,173)   DRY( 21,174)   DRY( 21,175)   DRY( 21,176)   
    DRY( 21,177)   DRY( 21,178)   DRY( 21,179)   DRY( 21,180)   DRY( 21,181)   
    DRY( 21,182)   DRY( 21,183)   DRY( 21,184)   DRY( 21,185)   DRY( 21,186)   
    DRY( 21,187)   DRY( 21,188)   DRY( 21,189)   DRY( 21,190)   DRY( 21,191)   
    DRY( 21,199)   DRY( 21,200)   DRY( 21,201)   DRY( 21,202)   DRY( 21,203)   
    DRY( 21,204)   DRY( 21,205)   DRY( 21,206)   DRY( 21,207)   DRY( 21,208)   
    DRY( 21,209)   DRY( 21,210)   DRY( 22,  1)   DRY( 22,  2)   DRY( 22,  3)   
    DRY( 22,  4)   DRY( 22,  5)   DRY( 22,  6)   DRY( 22,  7)   DRY( 22,  8)   
    DRY( 22,  9)   DRY( 22, 10)   DRY( 22, 11)   DRY( 22, 12)   DRY( 22, 13)   
    DRY( 22, 14)   DRY( 22, 15)   DRY( 22, 16)   DRY( 22, 17)   DRY( 22, 18)   
    DRY( 22, 19)   DRY( 22, 20)   DRY( 22, 21)   DRY( 22, 22)   DRY( 22, 23)   
    DRY( 22, 24)   DRY( 22, 25)   DRY( 22, 26)   DRY( 22, 27)   DRY( 22, 28)   
    DRY( 22, 29)   DRY( 22, 30)   DRY( 22, 31)   DRY( 22, 32)   DRY( 22, 33)   
    DRY( 22, 34)   DRY( 22, 35)   DRY( 22, 36)   DRY( 22, 37)   DRY( 22, 38)   
    DRY( 22, 39)   DRY( 22, 40)   DRY( 22, 41)   DRY( 22, 42)   DRY( 22, 43)   
    DRY( 22, 44)   DRY( 22, 45)   DRY( 22, 46)   DRY( 22, 47)   DRY( 22, 48)   
    DRY( 22, 49)   DRY( 22, 50)   DRY( 22, 51)   DRY( 22, 52)   DRY( 22, 53)   
    DRY( 22, 54)   DRY( 22, 55)   DRY( 22, 56)   DRY( 22, 57)   DRY( 22, 58)   
    DRY( 22, 59)   DRY( 22, 60)   DRY( 22, 61)   DRY( 22, 62)   DRY( 22, 63)   
    DRY( 22, 64)   DRY( 22, 65)   DRY( 22, 66)   DRY( 22, 67)   DRY( 22, 68)   
    DRY( 22, 69)   DRY( 22, 70)   DRY( 22, 71)   DRY( 22, 72)   DRY( 22, 73)   
    DRY( 22, 74)   DRY( 22, 75)   DRY( 22, 76)   DRY( 22, 77)   DRY( 22, 78)   
    DRY( 22, 79)   DRY( 22, 80)   DRY( 22, 81)   DRY( 22, 82)   DRY( 22, 83)   
    DRY( 22, 84)   DRY( 22, 85)   DRY( 22, 86)   DRY( 22, 87)   DRY( 22, 88)   
    DRY( 22, 89)   DRY( 22, 90)   DRY( 22, 91)   DRY( 22, 92)   DRY( 22, 93)   
    DRY( 22, 94)   DRY( 22, 95)   DRY( 22, 96)   DRY( 22, 97)   DRY( 22, 98)   
    DRY( 22, 99)   DRY( 22,100)   DRY( 22,101)   DRY( 22,102)   DRY( 22,103)   
    DRY( 22,104)   DRY( 22,105)   DRY( 22,106)   DRY( 22,107)   DRY( 22,108)   
    DRY( 22,109)   DRY( 22,110)   DRY( 22,111)   DRY( 22,112)   DRY( 22,113)   
    DRY( 22,114)   DRY( 22,115)   DRY( 22,116)   DRY( 22,117)   DRY( 22,118)   
    DRY( 22,119)   DRY( 22,120)   DRY( 22,121)   DRY( 22,122)   DRY( 22,123)   
    DRY( 22,124)   DRY( 22,125)   DRY( 22,126)   DRY( 22,127)   DRY( 22,128)   
    DRY( 22,129)   DRY( 22,130)   DRY( 22,131)   DRY( 22,132)   DRY( 22,133)   
    DRY( 22,134)   DRY( 22,135)   DRY( 22,136)   DRY( 22,137)   DRY( 22,138)   
    DRY( 22,139)   DRY( 22,140)   DRY( 22,141)   DRY( 22,142)   DRY( 22,143)   
    DRY( 22,144)   DRY( 22,145)   DRY( 22,146)   DRY( 22,147)   DRY( 22,148)   
    DRY( 22,149)   DRY( 22,150)   DRY( 22,151)   DRY( 22,152)   DRY( 22,153)   
    DRY( 22,154)   DRY( 22,155)   DRY( 22,156)   DRY( 22,157)   DRY( 22,158)   
    DRY( 22,159)   DRY( 22,160)   DRY( 22,161)   DRY( 22,162)   DRY( 22,163)   
    DRY( 22,164)   DRY( 22,165)   DRY( 22,166)   DRY( 22,167)   DRY( 22,168)   
    DRY( 22,169)   DRY( 22,170)   DRY( 22,171)   DRY( 22,172)   DRY( 22,173)   
    DRY( 22,174)   DRY( 22,175)   DRY( 22,176)   DRY( 22,177)   DRY( 22,178)   
    DRY( 22,179)   DRY( 22,180)   DRY( 22,181)   DRY( 22,182)   DRY( 22,183)   
    DRY( 22,184)   DRY( 22,185)   DRY( 22,186)   DRY( 22,187)   DRY( 22,188)   
    DRY( 22,189)   DRY( 22,190)   DRY( 22,191)   DRY( 22,192)   DRY( 22,193)   
    DRY( 22,194)   DRY( 22,195)   DRY( 22,196)   DRY( 22,197)   DRY( 22,198)   
    DRY( 22,199)   DRY( 22,200)   DRY( 22,201)   DRY( 22,202)   DRY( 22,203)   
    DRY( 22,204)   DRY( 22,205)   DRY( 22,206)   DRY( 22,207)   DRY( 22,208)   
    DRY( 22,209)   DRY( 22,210)   DRY( 22,211)   DRY( 22,212)   DRY( 22,220)   
    DRY( 23,  1)   DRY( 23,  2)   DRY( 23,  3)   DRY( 23,  4)   DRY( 23,  5)   
    DRY( 23,  6)   DRY( 23,  7)   DRY( 23,  8)   DRY( 23,  9)   DRY( 23, 10)   
    DRY( 23, 11)   DRY( 23, 12)   DRY( 23, 13)   DRY( 23, 14)   DRY( 23, 15)   
    DRY( 23, 16)   DRY( 23, 17)   DRY( 23, 18)   DRY( 23, 19)   DRY( 23, 20)   
    DRY( 23, 21)   DRY( 23, 22)   DRY( 23, 23)   DRY( 23, 24)   DRY( 23, 25)   
    DRY( 23, 26)   DRY( 23, 27)   DRY( 23, 28)   DRY( 23, 29)   DRY( 23, 30)   
    DRY( 23, 31)   DRY( 23, 32)   DRY( 23, 33)   DRY( 23, 34)   DRY( 23, 35)   
    DRY( 23, 36)   DRY( 23, 37)   DRY( 23, 38)   DRY( 23, 39)   DRY( 23, 40)   
    DRY( 23, 41)   DRY( 23, 42)   DRY( 23, 43)   DRY( 23, 44)   DRY( 23, 45)   
    DRY( 23, 46)   DRY( 23, 47)   DRY( 23, 48)   DRY( 23, 49)   DRY( 23, 50)   
    DRY( 23, 51)   DRY( 23, 52)   DRY( 23, 53)   DRY( 23, 54)   DRY( 23, 55)   
    DRY( 23, 56)   DRY( 23, 57)   DRY( 23, 58)   DRY( 23, 59)   DRY( 23, 60)   
    DRY( 23, 61)   DRY( 23, 62)   DRY( 23, 63)   DRY( 23, 64)   DRY( 23, 65)   
    DRY( 23, 66)   DRY( 23, 67)   DRY( 23, 68)   DRY( 23, 69)   DRY( 23, 70)   
    DRY( 23, 71)   DRY( 23, 72)   DRY( 23, 73)   DRY( 23, 74)   DRY( 23, 75)   
    DRY( 23, 76)   DRY( 23, 77)   DRY( 23, 78)   DRY( 23, 79)   DRY( 23, 80)   
    DRY( 23, 81)   DRY( 23, 82)   DRY( 23, 83)   DRY( 23, 84)   DRY( 23, 85)   
    DRY( 23, 86)   DRY( 23, 87)   DRY( 23, 88)   DRY( 23, 89)   DRY( 23, 90)   
    DRY( 23, 91)   DRY( 23, 92)   DRY( 23, 93)   DRY( 23, 94)   DRY( 23, 95)   
    DRY( 23, 96)   DRY( 23, 97)   DRY( 23, 98)   DRY( 23, 99)   DRY( 23,100)   
    DRY( 23,101)   DRY( 23,102)   DRY( 23,103)   DRY( 23,104)   DRY( 23,105)   
    DRY( 23,106)   DRY( 23,107)   DRY( 23,108)   DRY( 23,109)   DRY( 23,110)   
    DRY( 23,111)   DRY( 23,112)   DRY( 23,113)   DRY( 23,114)   DRY( 23,115)   
    DRY( 23,116)   DRY( 23,117)   DRY( 23,118)   DRY( 23,119)   DRY( 23,120)   
    DRY( 23,121)   DRY( 23,122)   DRY( 23,123)   DRY( 23,124)   DRY( 23,125)   
    DRY( 23,126)   DRY( 23,127)   DRY( 23,128)   DRY( 23,129)   DRY( 23,130)   
    DRY( 23,131)   DRY( 23,132)   DRY( 23,133)   DRY( 23,134)   DRY( 23,135)   
    DRY( 23,136)   DRY( 23,137)   DRY( 23,138)   DRY( 23,139)   DRY( 23,140)   
    DRY( 23,141)   DRY( 23,142)   DRY( 23,143)   DRY( 23,144)   DRY( 23,145)   
    DRY( 23,146)   DRY( 23,147)   DRY( 23,148)   DRY( 23,149)   DRY( 23,150)   
    DRY( 23,151)   DRY( 23,152)   DRY( 23,153)   DRY( 23,154)   DRY( 23,155)   
    DRY( 23,156)   DRY( 23,157)   DRY( 23,158)   DRY( 23,159)   DRY( 23,160)   
    DRY( 23,161)   DRY( 23,162)   DRY( 23,163)   DRY( 23,164)   DRY( 23,165)   
    DRY( 23,166)   DRY( 23,167)   DRY( 23,168)   DRY( 23,169)   DRY( 23,170)   
    DRY( 23,171)   DRY( 23,172)   DRY( 23,173)   DRY( 23,174)   DRY( 23,175)   
    DRY( 23,176)   DRY( 23,177)   DRY( 23,178)   DRY( 23,179)   DRY( 23,180)   
    DRY( 23,181)   DRY( 23,182)   DRY( 23,183)   DRY( 23,184)   DRY( 23,185)   
    DRY( 23,186)   DRY( 23,187)   DRY( 23,188)   DRY( 23,189)   DRY( 23,190)   
    DRY( 23,191)   DRY( 23,192)   DRY( 23,193)   DRY( 23,194)   DRY( 23,195)   
    DRY( 23,196)   DRY( 23,197)   DRY( 23,198)   DRY( 23,199)   DRY( 23,200)   
    DRY( 23,201)   DRY( 23,202)   DRY( 23,203)   DRY( 23,204)   DRY( 23,205)   
    DRY( 23,206)   DRY( 23,207)   DRY( 23,208)   DRY( 23,209)   DRY( 23,210)   
    DRY( 23,211)   DRY( 23,212)   DRY( 23,213)   DRY( 23,214)   DRY( 23,219)   
    DRY( 23,220)   DRY( 24,  1)   DRY( 24,  2)   DRY( 24,  3)   DRY( 24,  4)   
    DRY( 24,  5)   DRY( 24,  6)   DRY( 24,  7)   DRY( 24,  8)   DRY( 24,  9)   
    DRY( 24, 10)   DRY( 24, 11)   DRY( 24, 12)   DRY( 24, 13)   DRY( 24, 14)   
    DRY( 24, 15)   DRY( 24, 16)   DRY( 24, 17)   DRY( 24, 18)   DRY( 24, 19)   
    DRY( 24, 20)   DRY( 24, 21)   DRY( 24, 22)   DRY( 24, 23)   DRY( 24, 24)   
    DRY( 24, 25)   DRY( 24, 26)   DRY( 24, 27)   DRY( 24, 28)   DRY( 24, 29)   
    DRY( 24, 30)   DRY( 24, 31)   DRY( 24, 32)   DRY( 24, 33)   DRY( 24, 34)   
    DRY( 24, 35)   DRY( 24, 36)   DRY( 24, 37)   DRY( 24, 38)   DRY( 24, 39)   
    DRY( 24, 40)   DRY( 24, 41)   DRY( 24, 42)   DRY( 24, 43)   DRY( 24, 44)   
    DRY( 24, 45)   DRY( 24, 46)   DRY( 24, 47)   DRY( 24, 48)   DRY( 24, 49)   
    DRY( 24, 50)   DRY( 24, 51)   DRY( 24, 52)   DRY( 24, 53)   DRY( 24, 54)   
    DRY( 24, 55)   DRY( 24, 56)   DRY( 24, 57)   DRY( 24, 58)   DRY( 24, 59)   
    DRY( 24, 60)   DRY( 24, 61)   DRY( 24, 62)   DRY( 24, 63)   DRY( 24, 64)   
    DRY( 24, 65)   DRY( 24, 66)   DRY( 24, 67)   DRY( 24, 68)   DRY( 24, 69)   
    DRY( 24, 70)   DRY( 24, 71)   DRY( 24, 72)   DRY( 24, 73)   DRY( 24, 74)   
    DRY( 24, 75)   DRY( 24, 76)   DRY( 24, 77)   DRY( 24, 78)   DRY( 24, 79)   
    DRY( 24, 80)   DRY( 24, 81)   DRY( 24, 82)   DRY( 24, 83)   DRY( 24, 84)   
    DRY( 24, 85)   DRY( 24, 86)   DRY( 24, 87)   DRY( 24, 88)   DRY( 24, 89)   
    DRY( 24, 90)   DRY( 24, 91)   DRY( 24, 92)   DRY( 24, 93)   DRY( 24, 94)   
    DRY( 24, 95)   DRY( 24, 96)   DRY( 24, 97)   DRY( 24, 98)   DRY( 24, 99)   
    DRY( 24,100)   DRY( 24,101)   DRY( 24,102)   DRY( 24,103)   DRY( 24,104)   
    DRY( 24,105)   DRY( 24,106)   DRY( 24,107)   DRY( 24,108)   DRY( 24,109)   
    DRY( 24,110)   DRY( 24,111)   DRY( 24,112)   DRY( 24,113)   DRY( 24,114)   
    DRY( 24,115)   DRY( 24,116)   DRY( 24,117)   DRY( 24,118)   DRY( 24,119)   
    DRY( 24,120)   DRY( 24,121)   DRY( 24,122)   DRY( 24,123)   DRY( 24,124)   
    DRY( 24,125)   DRY( 24,126)   DRY( 24,127)   DRY( 24,128)   DRY( 24,129)   
    DRY( 24,130)   DRY( 24,131)   DRY( 24,132)   DRY( 24,133)   DRY( 24,134)   
    DRY( 24,135)   DRY( 24,136)   DRY( 24,137)   DRY( 24,138)   DRY( 24,139)   
    DRY( 24,140)   DRY( 24,141)   DRY( 24,142)   DRY( 24,143)   DRY( 24,144)   
    DRY( 24,145)   DRY( 24,146)   DRY( 24,147)   DRY( 24,148)   DRY( 24,149)   
    DRY( 24,150)   DRY( 24,151)   DRY( 24,152)   DRY( 24,153)   DRY( 24,154)   
    DRY( 24,155)   DRY( 24,156)   DRY( 24,157)   DRY( 24,158)   DRY( 24,159)   
    DRY( 24,160)   DRY( 24,161)   DRY( 24,162)   DRY( 24,163)   DRY( 24,164)   
    DRY( 24,165)   DRY( 24,166)   DRY( 24,167)   DRY( 24,168)   DRY( 24,169)   
    DRY( 24,170)   DRY( 24,171)   DRY( 24,172)   DRY( 24,173)   DRY( 24,174)   
    DRY( 24,175)   DRY( 24,176)   DRY( 24,177)   DRY( 24,178)   DRY( 24,179)   
    DRY( 24,180)   DRY( 24,181)   DRY( 24,182)   DRY( 24,183)   DRY( 24,184)   
    DRY( 24,185)   DRY( 24,186)   DRY( 24,187)   DRY( 24,188)   DRY( 24,189)   
    DRY( 24,190)   DRY( 24,191)   DRY( 24,192)   DRY( 24,193)   DRY( 24,194)   
    DRY( 24,195)   DRY( 24,196)   DRY( 24,197)   DRY( 24,198)   DRY( 24,199)   
    DRY( 24,200)   DRY( 24,201)   DRY( 24,202)   DRY( 24,203)   DRY( 24,204)   
    DRY( 24,205)   DRY( 24,206)   DRY( 24,207)   DRY( 24,208)   DRY( 24,209)   
    DRY( 24,210)   DRY( 24,211)   DRY( 24,212)   DRY( 24,213)   DRY( 24,214)   
    DRY( 24,215)   DRY( 24,216)   DRY( 24,217)   DRY( 24,218)   DRY( 24,219)   
    DRY( 24,220)   DRY( 25,  1)   DRY( 25,  2)   DRY( 25,  3)   DRY( 25,  4)   
    DRY( 25,  5)   DRY( 25,  6)   DRY( 25,  7)   DRY( 25,  8)   DRY( 25,  9)   
    DRY( 25, 10)   DRY( 25, 11)   DRY( 25, 12)   DRY( 25, 13)   DRY( 25, 14)   
    DRY( 25, 15)   DRY( 25, 16)   DRY( 25, 17)   DRY( 25, 18)   DRY( 25, 19)   
    DRY( 25, 20)   DRY( 25, 21)   DRY( 25, 22)   DRY( 25, 23)   DRY( 25, 24)   
    DRY( 25, 25)   DRY( 25, 26)   DRY( 25, 27)   DRY( 25, 28)   DRY( 25, 29)   
    DRY( 25, 30)   DRY( 25, 31)   DRY( 25, 32)   DRY( 25, 33)   DRY( 25, 34)   
    DRY( 25, 35)   DRY( 25, 36)   DRY( 25, 37)   DRY( 25, 38)   DRY( 25, 39)   
    DRY( 25, 40)   DRY( 25, 41)   DRY( 25, 42)   DRY( 25, 43)   DRY( 25, 44)   
    DRY( 25, 45)   DRY( 25, 46)   DRY( 25, 47)   DRY( 25, 48)   DRY( 25, 49)   
    DRY( 25, 50)   DRY( 25, 51)   DRY( 25, 52)   DRY( 25, 53)   DRY( 25, 54)   
    DRY( 25, 55)   DRY( 25, 56)   DRY( 25, 57)   DRY( 25, 58)   DRY( 25, 59)   
    DRY( 25, 60)   DRY( 25, 61)   DRY( 25, 62)   DRY( 25, 63)   DRY( 25, 64)   
    DRY( 25, 65)   DRY( 25, 66)   DRY( 25, 67)   DRY( 25, 68)   DRY( 25, 69)   
    DRY( 25, 70)   DRY( 25, 71)   DRY( 25, 72)   DRY( 25, 73)   DRY( 25, 74)   
    DRY( 25, 75)   DRY( 25, 76)   DRY( 25, 77)   DRY( 25, 78)   DRY( 25, 79)   
    DRY( 25, 80)   DRY( 25, 81)   DRY( 25, 82)   DRY( 25, 83)   DRY( 25, 84)   
    DRY( 25, 85)   DRY( 25, 86)   DRY( 25, 87)   DRY( 25, 88)   DRY( 25, 89)   
    DRY( 25, 90)   DRY( 25, 91)   DRY( 25, 92)   DRY( 25, 93)   DRY( 25, 94)   
    DRY( 25, 95)   DRY( 25, 96)   DRY( 25, 97)   DRY( 25, 98)   DRY( 25, 99)   
    DRY( 25,100)   DRY( 25,101)   DRY( 25,102)   DRY( 25,103)   DRY( 25,104)   
    DRY( 25,105)   DRY( 25,106)   DRY( 25,107)   DRY( 25,108)   DRY( 25,109)   
    DRY( 25,110)   DRY( 25,111)   DRY( 25,112)   DRY( 25,113)   DRY( 25,114)   
    DRY( 25,115)   DRY( 25,116)   DRY( 25,117)   DRY( 25,118)   DRY( 25,119)   
    DRY( 25,120)   DRY( 25,121)   DRY( 25,122)   DRY( 25,123)   DRY( 25,124)   
    DRY( 25,125)   DRY( 25,126)   DRY( 25,127)   DRY( 25,128)   DRY( 25,129)   
    DRY( 25,130)   DRY( 25,131)   DRY( 25,132)   DRY( 25,133)   DRY( 25,134)   
    DRY( 25,135)   DRY( 25,136)   DRY( 25,137)   DRY( 25,138)   DRY( 25,139)   
    DRY( 25,140)   DRY( 25,141)   DRY( 25,142)   DRY( 25,143)   DRY( 25,144)   
    DRY( 25,145)   DRY( 25,146)   DRY( 25,147)   DRY( 25,148)   DRY( 25,149)   
    DRY( 25,150)   DRY( 25,151)   DRY( 25,152)   DRY( 25,153)   DRY( 25,154)   
    DRY( 25,155)   DRY( 25,156)   DRY( 25,157)   DRY( 25,158)   DRY( 25,159)   
    DRY( 25,160)   DRY( 25,161)   DRY( 25,162)   DRY( 25,163)   DRY( 25,164)   
    DRY( 25,165)   DRY( 25,166)   DRY( 25,167)   DRY( 25,168)   DRY( 25,169)   
    DRY( 25,170)   DRY( 25,171)   DRY( 25,172)   DRY( 25,173)   DRY( 25,174)   
    DRY( 25,175)   DRY( 25,176)   DRY( 25,177)   DRY( 25,178)   DRY( 25,179)   
    DRY( 25,180)   DRY( 25,181)   DRY( 25,182)   DRY( 25,183)   DRY( 25,184)   
    DRY( 25,185)   DRY( 25,186)   DRY( 25,187)   DRY( 25,188)   DRY( 25,189)   
    DRY( 25,190)   DRY( 25,191)   DRY( 25,192)   DRY( 25,193)   DRY( 25,194)   
    DRY( 25,195)   DRY( 25,196)   DRY( 25,197)   DRY( 25,198)   DRY( 25,199)   
    DRY( 25,200)   DRY( 25,201)   DRY( 25,202)   DRY( 25,203)   DRY( 25,204)   
    DRY( 25,205)   DRY( 25,206)   DRY( 25,207)   DRY( 25,208)   DRY( 25,209)   
    DRY( 25,210)   DRY( 25,211)   DRY( 25,212)   DRY( 25,213)   DRY( 25,214)   
    DRY( 25,215)   DRY( 25,216)   DRY( 25,217)   DRY( 25,218)   DRY( 25,219)   
    DRY( 25,220)   DRY( 26,  1)   DRY( 26,  2)   DRY( 26,  3)   DRY( 26,  4)   
    DRY( 26,  5)   DRY( 26,  6)   DRY( 26,  7)   DRY( 26,  8)   DRY( 26,  9)   
    DRY( 26, 10)   DRY( 26, 11)   DRY( 26, 12)   DRY( 26, 13)   DRY( 26, 14)   
    DRY( 26, 15)   DRY( 26, 16)   DRY( 26, 17)   DRY( 26, 18)   DRY( 26, 19)   
    DRY( 26, 20)   DRY( 26, 21)   DRY( 26, 22)   DRY( 26, 23)   DRY( 26, 24)   
    DRY( 26, 25)   DRY( 26, 26)   DRY( 26, 27)   DRY( 26, 28)   DRY( 26, 29)   
    DRY( 26, 30)   DRY( 26, 31)   DRY( 26, 32)   DRY( 26, 33)   DRY( 26, 34)   
    DRY( 26, 35)   DRY( 26, 36)   DRY( 26, 37)   DRY( 26, 38)   DRY( 26, 39)   
    DRY( 26, 40)   DRY( 26, 41)   DRY( 26, 42)   DRY( 26, 43)   DRY( 26, 44)   
    DRY( 26, 45)   DRY( 26, 46)   DRY( 26, 47)   DRY( 26, 48)   DRY( 26, 49)   
    DRY( 26, 50)   DRY( 26, 51)   DRY( 26, 52)   DRY( 26, 53)   DRY( 26, 54)   
    DRY( 26, 55)   DRY( 26, 56)   DRY( 26, 57)   DRY( 26, 58)   DRY( 26, 59)   
    DRY( 26, 60)   DRY( 26, 61)   DRY( 26, 62)   DRY( 26, 63)   DRY( 26, 64)   
    DRY( 26, 65)   DRY( 26, 66)   DRY( 26, 67)   DRY( 26, 68)   DRY( 26, 69)   
    DRY( 26, 70)   DRY( 26, 71)   DRY( 26, 72)   DRY( 26, 73)   DRY( 26, 74)   
    DRY( 26, 75)   DRY( 26, 76)   DRY( 26, 77)   DRY( 26, 78)   DRY( 26, 79)   
    DRY( 26, 80)   DRY( 26, 81)   DRY( 26, 82)   DRY( 26, 83)   DRY( 26, 84)   
    DRY( 26, 85)   DRY( 26, 86)   DRY( 26, 87)   DRY( 26, 88)   DRY( 26, 89)   
    DRY( 26, 90)   DRY( 26, 91)   DRY( 26, 92)   DRY( 26, 93)   DRY( 26, 94)   
    DRY( 26, 95)   DRY( 26, 96)   DRY( 26, 97)   DRY( 26, 98)   DRY( 26, 99)   
    DRY( 26,100)   DRY( 26,101)   DRY( 26,102)   DRY( 26,103)   DRY( 26,104)   
    DRY( 26,105)   DRY( 26,106)   DRY( 26,107)   DRY( 26,108)   DRY( 26,109)   
    DRY( 26,110)   DRY( 26,111)   DRY( 26,112)   DRY( 26,113)   DRY( 26,114)   
    DRY( 26,115)   DRY( 26,116)   DRY( 26,117)   DRY( 26,118)   DRY( 26,119)   
    DRY( 26,120)   DRY( 26,121)   DRY( 26,122)   DRY( 26,123)   DRY( 26,124)   
    DRY( 26,125)   DRY( 26,126)   DRY( 26,127)   DRY( 26,128)   DRY( 26,129)   
    DRY( 26,130)   DRY( 26,131)   DRY( 26,132)   DRY( 26,133)   DRY( 26,134)   
    DRY( 26,135)   DRY( 26,136)   DRY( 26,137)   DRY( 26,138)   DRY( 26,139)   
    DRY( 26,140)   DRY( 26,141)   DRY( 26,142)   DRY( 26,143)   DRY( 26,144)   
    DRY( 26,145)   DRY( 26,146)   DRY( 26,147)   DRY( 26,148)   DRY( 26,149)   
    DRY( 26,150)   DRY( 26,151)   DRY( 26,152)   DRY( 26,153)   DRY( 26,154)   
    DRY( 26,155)   DRY( 26,156)   DRY( 26,157)   DRY( 26,158)   DRY( 26,159)   
    DRY( 26,160)   DRY( 26,161)   DRY( 26,162)   DRY( 26,163)   DRY( 26,164)   
    DRY( 26,165)   DRY( 26,166)   DRY( 26,167)   DRY( 26,168)   DRY( 26,169)   
    DRY( 26,170)   DRY( 26,171)   DRY( 26,172)   DRY( 26,173)   DRY( 26,174)   
    DRY( 26,175)   DRY( 26,176)   DRY( 26,177)   DRY( 26,178)   DRY( 26,179)   
    DRY( 26,180)   DRY( 26,181)   DRY( 26,182)   DRY( 26,183)   DRY( 26,184)   
    DRY( 26,185)   DRY( 26,186)   DRY( 26,187)   DRY( 26,188)   DRY( 26,189)   
    DRY( 26,190)   DRY( 26,191)   DRY( 26,192)   DRY( 26,193)   DRY( 26,194)   
    DRY( 26,195)   DRY( 26,196)   DRY( 26,197)   DRY( 26,198)   DRY( 26,199)   
    DRY( 26,200)   DRY( 26,201)   DRY( 26,202)   DRY( 26,203)   DRY( 26,204)   
    DRY( 26,205)   DRY( 26,206)   DRY( 26,207)   DRY( 26,208)   DRY( 26,209)   
    DRY( 26,210)   DRY( 26,211)   DRY( 26,212)   DRY( 26,213)   DRY( 26,214)   
    DRY( 26,215)   DRY( 26,216)   DRY( 26,217)   DRY( 26,218)   DRY( 26,219)   
    DRY( 26,220)   DRY( 27,  1)   DRY( 27,  2)   DRY( 27,  3)   DRY( 27,  4)   
    DRY( 27,  5)   DRY( 27,  6)   DRY( 27,  7)   DRY( 27,  8)   DRY( 27,  9)   
    DRY( 27, 10)   DRY( 27, 11)   DRY( 27, 12)   DRY( 27, 13)   DRY( 27, 14)   
    DRY( 27, 15)   DRY( 27, 16)   DRY( 27, 17)   DRY( 27, 18)   DRY( 27, 19)   
    DRY( 27, 20)   DRY( 27, 21)   DRY( 27, 22)   DRY( 27, 23)   DRY( 27, 24)   
    DRY( 27, 25)   DRY( 27, 26)   DRY( 27, 27)   DRY( 27, 28)   DRY( 27, 29)   
    DRY( 27, 30)   DRY( 27, 31)   DRY( 27, 32)   DRY( 27, 33)   DRY( 27, 34)   
    DRY( 27, 35)   DRY( 27, 36)   DRY( 27, 37)   DRY( 27, 38)   DRY( 27, 39)   
    DRY( 27, 40)   DRY( 27, 41)   DRY( 27, 42)   DRY( 27, 43)   DRY( 27, 44)   
    DRY( 27, 45)   DRY( 27, 46)   DRY( 27, 47)   DRY( 27, 48)   DRY( 27, 49)   
    DRY( 27, 50)   DRY( 27, 51)   DRY( 27, 52)   DRY( 27, 53)   DRY( 27, 54)   
    DRY( 27, 55)   DRY( 27, 56)   DRY( 27, 57)   DRY( 27, 58)   DRY( 27, 59)   
    DRY( 27, 60)   DRY( 27, 61)   DRY( 27, 62)   DRY( 27, 63)   DRY( 27, 64)   
    DRY( 27, 65)   DRY( 27, 66)   DRY( 27, 67)   DRY( 27, 68)   DRY( 27, 69)   
    DRY( 27, 70)   DRY( 27, 71)   DRY( 27, 72)   DRY( 27, 73)   DRY( 27, 74)   
    DRY( 27, 75)   DRY( 27, 76)   DRY( 27, 77)   DRY( 27, 78)   DRY( 27, 79)   
    DRY( 27, 80)   DRY( 27, 81)   DRY( 27, 82)   DRY( 27, 83)   DRY( 27, 84)   
    DRY( 27, 85)   DRY( 27, 86)   DRY( 27, 87)   DRY( 27, 88)   DRY( 27, 89)   
    DRY( 27, 90)   DRY( 27, 91)   DRY( 27, 92)   DRY( 27, 93)   DRY( 27, 94)   
    DRY( 27, 95)   DRY( 27, 96)   DRY( 27, 97)   DRY( 27, 98)   DRY( 27, 99)   
    DRY( 27,100)   DRY( 27,101)   DRY( 27,102)   DRY( 27,103)   DRY( 27,104)   
    DRY( 27,105)   DRY( 27,106)   DRY( 27,107)   DRY( 27,108)   DRY( 27,109)   
    DRY( 27,110)   DRY( 27,111)   DRY( 27,112)   DRY( 27,113)   DRY( 27,114)   
    DRY( 27,115)   DRY( 27,116)   DRY( 27,117)   DRY( 27,118)   DRY( 27,119)   
    DRY( 27,120)   DRY( 27,121)   DRY( 27,122)   DRY( 27,123)   DRY( 27,124)   
    DRY( 27,125)   DRY( 27,126)   DRY( 27,127)   DRY( 27,128)   DRY( 27,129)   
    DRY( 27,130)   DRY( 27,131)   DRY( 27,132)   DRY( 27,133)   DRY( 27,134)   
    DRY( 27,135)   DRY( 27,136)   DRY( 27,137)   DRY( 27,138)   DRY( 27,139)   
    DRY( 27,140)   DRY( 27,141)   DRY( 27,142)   DRY( 27,143)   DRY( 27,144)   
    DRY( 27,145)   DRY( 27,146)   DRY( 27,147)   DRY( 27,148)   DRY( 27,149)   
    DRY( 27,150)   DRY( 27,151)   DRY( 27,152)   DRY( 27,153)   DRY( 27,154)   
    DRY( 27,155)   DRY( 27,156)   DRY( 27,157)   DRY( 27,158)   DRY( 27,159)   
    DRY( 27,160)   DRY( 27,161)   DRY( 27,162)   DRY( 27,163)   DRY( 27,164)   
    DRY( 27,165)   DRY( 27,166)   DRY( 27,167)   DRY( 27,168)   DRY( 27,169)   
    DRY( 27,170)   DRY( 27,171)   DRY( 27,172)   DRY( 27,173)   DRY( 27,174)   
    DRY( 27,175)   DRY( 27,176)   DRY( 27,177)   DRY( 27,178)   DRY( 27,179)   
    DRY( 27,180)   DRY( 27,181)   DRY( 27,182)   DRY( 27,183)   DRY( 27,184)   
    DRY( 27,185)   DRY( 27,186)   DRY( 27,187)   DRY( 27,188)   DRY( 27,189)   
    DRY( 27,190)   DRY( 27,191)   DRY( 27,192)   DRY( 27,193)   DRY( 27,194)   
    DRY( 27,195)   DRY( 27,196)   DRY( 27,197)   DRY( 27,198)   DRY( 27,199)   
    DRY( 27,200)   DRY( 27,201)   DRY( 27,202)   DRY( 27,203)   DRY( 27,204)   
    DRY( 27,205)   DRY( 27,206)   DRY( 27,207)   DRY( 27,208)   DRY( 27,209)   
    DRY( 27,210)   DRY( 27,211)   DRY( 27,212)   DRY( 27,213)   DRY( 27,214)   
    DRY( 27,215)   DRY( 27,216)   DRY( 27,217)   DRY( 27,218)   DRY( 27,219)   
    DRY( 27,220)   DRY( 28,  1)   DRY( 28,  2)   DRY( 28,  3)   DRY( 28,  4)   
    DRY( 28,  5)   DRY( 28,  6)   DRY( 28,  7)   DRY( 28,  8)   DRY( 28,  9)   
    DRY( 28, 10)   DRY( 28, 11)   DRY( 28, 12)   DRY( 28, 13)   DRY( 28, 14)   
    DRY( 28, 15)   DRY( 28, 16)   DRY( 28, 17)   DRY( 28, 18)   DRY( 28, 19)   
    DRY( 28, 20)   DRY( 28, 21)   DRY( 28, 22)   DRY( 28, 23)   DRY( 28, 24)   
    DRY( 28, 25)   DRY( 28, 26)   DRY( 28, 27)   DRY( 28, 28)   DRY( 28, 29)   
    DRY( 28, 30)   DRY( 28, 31)   DRY( 28, 32)   DRY( 28, 33)   DRY( 28, 34)   
    DRY( 28, 35)   DRY( 28, 36)   DRY( 28, 37)   DRY( 28, 38)   DRY( 28, 39)   
    DRY( 28, 40)   DRY( 28, 41)   DRY( 28, 42)   DRY( 28, 43)   DRY( 28, 44)   
    DRY( 28, 45)   DRY( 28, 46)   DRY( 28, 47)   DRY( 28, 48)   DRY( 28, 49)   
    DRY( 28, 50)   DRY( 28, 51)   DRY( 28, 52)   DRY( 28, 53)   DRY( 28, 54)   
    DRY( 28, 55)   DRY( 28, 56)   DRY( 28, 57)   DRY( 28, 58)   DRY( 28, 59)   
    DRY( 28, 60)   DRY( 28, 61)   DRY( 28, 62)   DRY( 28, 63)   DRY( 28, 64)   
    DRY( 28, 65)   DRY( 28, 66)   DRY( 28, 67)   DRY( 28, 68)   DRY( 28, 69)   
    DRY( 28, 70)   DRY( 28, 71)   DRY( 28, 72)   DRY( 28, 73)   DRY( 28, 74)   
    DRY( 28, 75)   DRY( 28, 76)   DRY( 28, 77)   DRY( 28, 78)   DRY( 28, 79)   
    DRY( 28, 80)   DRY( 28, 81)   DRY( 28, 82)   DRY( 28, 83)   DRY( 28, 84)   
    DRY( 28, 85)   DRY( 28, 86)   DRY( 28, 87)   DRY( 28, 88)   DRY( 28, 89)   
    DRY( 28, 90)   DRY( 28, 91)   DRY( 28, 92)   DRY( 28, 93)   DRY( 28, 94)   
    DRY( 28, 95)   DRY( 28, 96)   DRY( 28, 97)   DRY( 28, 98)   DRY( 28, 99)   
    DRY( 28,100)   DRY( 28,101)   DRY( 28,102)   DRY( 28,103)   DRY( 28,104)   
    DRY( 28,105)   DRY( 28,106)   DRY( 28,107)   DRY( 28,108)   DRY( 28,109)   
    DRY( 28,110)   DRY( 28,111)   DRY( 28,112)   DRY( 28,113)   DRY( 28,114)   
    DRY( 28,115)   DRY( 28,116)   DRY( 28,117)   DRY( 28,118)   DRY( 28,119)   
    DRY( 28,120)   DRY( 28,121)   DRY( 28,122)   DRY( 28,123)   DRY( 28,124)   
    DRY( 28,125)   DRY( 28,126)   DRY( 28,127)   DRY( 28,128)   DRY( 28,129)   
    DRY( 28,130)   DRY( 28,131)   DRY( 28,132)   DRY( 28,133)   DRY( 28,134)   
    DRY( 28,135)   DRY( 28,136)   DRY( 28,137)   DRY( 28,138)   DRY( 28,139)   
    DRY( 28,140)   DRY( 28,141)   DRY( 28,142)   DRY( 28,143)   DRY( 28,144)   
    DRY( 28,145)   DRY( 28,146)   DRY( 28,147)   DRY( 28,148)   DRY( 28,149)   
    DRY( 28,150)   DRY( 28,151)   DRY( 28,152)   DRY( 28,153)   DRY( 28,154)   
    DRY( 28,155)   DRY( 28,156)   DRY( 28,157)   DRY( 28,158)   DRY( 28,159)   
    DRY( 28,160)   DRY( 28,161)   DRY( 28,162)   DRY( 28,163)   DRY( 28,164)   
    DRY( 28,165)   DRY( 28,166)   DRY( 28,167)   DRY( 28,168)   DRY( 28,169)   
    DRY( 28,170)   DRY( 28,171)   DRY( 28,172)   DRY( 28,173)   DRY( 28,174)   
    DRY( 28,175)   DRY( 28,176)   DRY( 28,177)   DRY( 28,178)   DRY( 28,179)   
    DRY( 28,180)   DRY( 28,181)   DRY( 28,182)   DRY( 28,183)   DRY( 28,184)   
    DRY( 28,185)   DRY( 28,186)   DRY( 28,187)   DRY( 28,188)   DRY( 28,189)   
    DRY( 28,190)   DRY( 28,191)   DRY( 28,192)   DRY( 28,193)   DRY( 28,194)   
    DRY( 28,195)   DRY( 28,196)   DRY( 28,197)   DRY( 28,198)   DRY( 28,199)   
    DRY( 28,200)   DRY( 28,201)   DRY( 28,202)   DRY( 28,203)   DRY( 28,204)   
    DRY( 28,205)   DRY( 28,206)   DRY( 28,207)   DRY( 28,208)   DRY( 28,209)   
    DRY( 28,210)   DRY( 28,211)   DRY( 28,212)   DRY( 28,213)   DRY( 28,214)   
    DRY( 28,215)   DRY( 28,216)   DRY( 28,217)   DRY( 28,218)   DRY( 28,219)   
    DRY( 28,220)   

 CELL CONVERSIONS FOR ITER.=  2  LAYER= 10  STEP=  1  PERIOD=   1   (ROW,COL)
    DRY( 19,  1)   DRY( 20,  1)   DRY( 20,  2)   DRY( 20,  3)   DRY( 21,  1)   
    DRY( 21,  2)   DRY( 21,  3)   DRY( 21,  4)   DRY( 21,  5)   DRY( 21,  6)   
    DRY( 21,  7)   DRY( 21,  8)   DRY( 21,  9)   DRY( 21, 10)   DRY( 21, 11)   
    DRY( 21, 12)   DRY( 21, 13)   DRY( 22,  1)   DRY( 22,  2)   DRY( 22,  3)   
    DRY( 22,  4)   DRY( 22,  5)   DRY( 22,  6)   DRY( 22,  7)   DRY( 22,  8)   
    DRY( 22,  9)   DRY( 22, 10)   DRY( 22, 11)   DRY( 22, 12)   DRY( 22, 13)   
    DRY( 22, 14)   DRY( 22, 15)   DRY( 22, 16)   DRY( 22, 17)   DRY( 22, 18)   
    DRY( 22, 19)   DRY( 22, 20)   DRY( 22, 21)   DRY( 22, 22)   DRY( 22, 23)   
    DRY( 22, 24)   DRY( 22, 25)   DRY( 22, 26)   DRY( 22, 27)   DRY( 22, 28)   
    DRY( 22, 29)   DRY( 22, 30)   DRY( 22, 31)   DRY( 22, 32)   DRY( 22, 33)   
    DRY( 22, 34)   DRY( 22, 35)   DRY( 22, 36)   DRY( 22, 37)   DRY( 22, 38)   
    DRY( 22, 39)   DRY( 23,  1)   DRY( 23,  2)   DRY( 23,  3)   DRY( 23,  4)   
    DRY( 23,  5)   DRY( 23,  6)   DRY( 23,  7)   DRY( 23,  8)   DRY( 23,  9)   
    DRY( 23, 10)   DRY( 23, 11)   DRY( 23, 12)   DRY( 23, 13)   DRY( 23, 14)   
    DRY( 23, 15)   DRY( 23, 16)   DRY( 23, 17)   DRY( 23, 18)   DRY( 23, 19)   
    DRY( 23, 20)   DRY( 23, 21)   DRY( 23, 22)   DRY( 23, 23)   DRY( 23, 24)   
    DRY( 23, 25)   DRY( 23, 26)   DRY( 23, 27)   DRY( 23, 28)   DRY( 23, 29)   
    DRY( 23, 30)   DRY( 23, 31)   DRY( 23, 32)   DRY( 23, 33)   DRY( 23, 34)   
    DRY( 23, 35)   DRY( 23, 36)   DRY( 23, 37)   DRY( 23, 38)   DRY( 23, 39)   
    DRY( 23, 40)   DRY( 23, 41)   DRY( 23, 42)   DRY( 23, 43)   DRY( 23, 44)   
    DRY( 23, 45)   DRY( 23, 46)   DRY( 23, 47)   DRY( 23, 48)   DRY( 23, 49)   
    DRY( 23, 50)   DRY( 23, 51)   DRY( 23, 52)   DRY( 23, 53)   DRY( 23, 54)   
    DRY( 23, 55)   DRY( 23, 56)   DRY( 23, 57)   DRY( 23, 58)   DRY( 23, 59)   
    DRY( 23, 60)   DRY( 23, 61)   DRY( 23, 62)   DRY( 23, 63)   DRY( 23, 64)   
    DRY( 23, 65)   DRY( 23, 66)   DRY( 23, 67)   DRY( 23, 68)   DRY( 23, 69)   
    DRY( 23, 70)   DRY( 23, 71)   DRY( 23, 72)   DRY( 23, 73)   DRY( 23, 74)   
    DRY( 23, 75)   DRY( 23, 76)   DRY( 23, 77)   DRY( 23, 78)   DRY( 23, 79)   
    DRY( 23, 80)   DRY( 23, 81)   DRY( 23,207)   DRY( 23,208)   DRY( 23,209)   
    DRY( 24,  1)   DRY( 24,  2)   DRY( 24,  3)   DRY( 24,  4)   DRY( 24,  5)   
    DRY( 24,  6)   DRY( 24,  7)   DRY( 24,  8)   DRY( 24,  9)   DRY( 24, 10)   
    DRY( 24, 11)   DRY( 24, 12)   DRY( 24, 13)   DRY( 24, 14)   DRY( 24, 15)   
    DRY( 24, 16)   DRY( 24, 17)   DRY( 24, 18)   DRY( 24, 19)   DRY( 24, 20)   
    DRY( 24, 21)   DRY( 24, 22)   DRY( 24, 23)   DRY( 24, 24)   DRY( 24, 25)   
    DRY( 24, 26)   DRY( 24, 27)   DRY( 24, 28)   DRY( 24, 29)   DRY( 24, 30)   
    DRY( 24, 31)   DRY( 24, 32)   DRY( 24, 33)   DRY( 24, 34)   DRY( 24, 35)   
    DRY( 24, 36)   DRY( 24, 37)   DRY( 24, 38)   DRY( 24, 39)   DRY( 24, 40)   
    DRY( 24, 41)   DRY( 24, 42)   DRY( 24, 43)   DRY( 24, 44)   DRY( 24, 45)   
    DRY( 24, 46)   DRY( 24, 47)   DRY( 24, 48)   DRY( 24, 49)   DRY( 24, 50)   
    DRY( 24, 51)   DRY( 24, 52)   DRY( 24, 53)   DRY( 24, 54)   DRY( 24, 55)   
    DRY( 24, 56)   DRY( 24, 57)   DRY( 24, 58)   DRY( 24, 59)   DRY( 24, 60)   
    DRY( 24, 61)   DRY( 24, 62)   DRY( 24, 63)   DRY( 24, 64)   DRY( 24, 65)   
    DRY( 24, 66)   DRY( 24, 67)   DRY( 24, 68)   DRY( 24, 69)   DRY( 24, 70)   
    DRY( 24, 71)   DRY( 24, 72)   DRY( 24, 73)   DRY( 24, 74)   DRY( 24, 75)   
    DRY( 24, 76)   DRY( 24, 77)   DRY( 24, 78)   DRY( 24, 79)   DRY( 24, 80)   
    DRY( 24, 81)   DRY( 24, 82)   DRY( 24, 83)   DRY( 24, 84)   DRY( 24, 85)   
    DRY( 24, 86)   DRY( 24, 87)   DRY( 24, 88)   DRY( 24, 89)   DRY( 24, 90)   
    DRY( 24, 91)   DRY( 24, 92)   DRY( 24, 93)   DRY( 24, 94)   DRY( 24, 95)   
    DRY( 24, 96)   DRY( 24, 97)   DRY( 24, 98)   DRY( 24, 99)   DRY( 24,100)   
    DRY( 24,101)   DRY( 24,102)   DRY( 24,103)   DRY( 24,104)   DRY( 24,105)   
    DRY( 24,106)   DRY( 24,107)   DRY( 24,108)   DRY( 24,109)   DRY( 24,110)   
    DRY( 24,111)   DRY( 24,112)   DRY( 24,113)   DRY( 24,148)   DRY( 24,149)   
    DRY( 24,150)   DRY( 24,151)   DRY( 24,152)   DRY( 24,153)   DRY( 24,154)   
    DRY( 24,155)   DRY( 24,169)   DRY( 24,170)   DRY( 24,171)   DRY( 24,172)   
    DRY( 24,173)   DRY( 24,174)   DRY( 24,205)   DRY( 24,206)   DRY( 24,207)   
    DRY( 24,208)   DRY( 24,209)   DRY( 24,210)   DRY( 24,211)   DRY( 25,  1)   
    DRY( 25,  2)   DRY( 25,  3)   DRY( 25,  4)   DRY( 25,  5)   DRY( 25,  6)   
    DRY( 25,  7)   DRY( 25,  8)   DRY( 25,  9)   DRY( 25, 10)   DRY( 25, 11)   
    DRY( 25, 12)   DRY( 25, 13)   DRY( 25, 14)   DRY( 25, 15)   DRY( 25, 16)   
    DRY( 25, 17)   DRY( 25, 18)   DRY( 25, 19)   DRY( 25, 20)   DRY( 25, 21)   
    DRY( 25, 22)   DRY( 25, 23)   DRY( 25, 24)   DRY( 25, 25)   DRY( 25, 26)   
    DRY( 25, 27)   DRY( 25, 28)   DRY( 25, 29)   DRY( 25, 30)   DRY( 25, 31)   
    DRY( 25, 32)   DRY( 25, 33)   DRY( 25, 34)   DRY( 25, 35)   DRY( 25, 36)   
    DRY( 25, 37)   DRY( 25, 38)   DRY( 25, 39)   DRY( 25, 40)   DRY( 25, 41)   
    DRY( 25, 42)   DRY( 25, 43)   DRY( 25, 44)   DRY( 25, 45)   DRY( 25, 46)   
    DRY( 25, 47)   DRY( 25, 48)   DRY( 25, 49)   DRY( 25, 50)   DRY( 25, 51)   
    DRY( 25, 52)   DRY( 25, 53)   DRY( 25, 54)   DRY( 25, 55)   DRY( 25, 56)   
    DRY( 25, 57)   DRY( 25, 58)   DRY( 25, 59)   DRY( 25, 60)   DRY( 25, 61)   
    DRY( 25, 62)   DRY( 25, 63)   DRY( 25, 64)   DRY( 25, 65)   DRY( 25, 66)   
    DRY( 25, 67)   DRY( 25, 68)   DRY( 25, 69)   DRY( 25, 70)   DRY( 25, 71)   
    DRY( 25, 72)   DRY( 25, 73)   DRY( 25, 74)   DRY( 25, 75)   DRY( 25, 76)   
    DRY( 25, 77)   DRY( 25, 78)   DRY( 25, 79)   DRY( 25, 80)   DRY( 25, 81)   
    DRY( 25, 82)   DRY( 25, 83)   DRY( 25, 84)   DRY( 25, 85)   DRY( 25, 86)   
    DRY( 25, 87)   DRY( 25, 88)   DRY( 25, 89)   DRY( 25, 90)   DRY( 25, 91)   
    DRY( 25, 92)   DRY( 25, 93)   DRY( 25, 94)   DRY( 25, 95)   DRY( 25, 96)   
    DRY( 25, 97)   DRY( 25, 98)   DRY( 25, 99)   DRY( 25,100)   DRY( 25,101)   
    DRY( 25,102)   DRY( 25,103)   DRY( 25,104)   DRY( 25,105)   DRY( 25,106)   
    DRY( 25,107)   DRY( 25,108)   DRY( 25,109)   DRY( 25,110)   DRY( 25,111)   
    DRY( 25,112)   DRY( 25,113)   DRY( 25,114)   DRY( 25,115)   DRY( 25,116)   
    DRY( 25,117)   DRY( 25,118)   DRY( 25,119)   DRY( 25,120)   DRY( 25,121)   
    DRY( 25,122)   DRY( 25,123)   DRY( 25,124)   DRY( 25,125)   DRY( 25,126)   
    DRY( 25,127)   DRY( 25,128)   DRY( 25,129)   DRY( 25,130)   DRY( 25,131)   
    DRY( 25,132)   DRY( 25,133)   DRY( 25,134)   DRY( 25,135)   DRY( 25,136)   
    DRY( 25,137)   DRY( 25,138)   DRY( 25,139)   DRY( 25,140)   DRY( 25,141)   
    DRY( 25,142)   DRY( 25,143)   DRY( 25,144)   DRY( 25,145)   DRY( 25,146)   
    DRY( 25,147)   DRY( 25,148)   DRY( 25,149)   DRY( 25,150)   DRY( 25,151)   
    DRY( 25,152)   DRY( 25,153)   DRY( 25,154)   DRY( 25,155)   DRY( 25,156)   
    DRY( 25,157)   DRY( 25,158)   DRY( 25,159)   DRY( 25,160)   DRY( 25,161)   
    DRY( 25,162)   DRY( 25,163)   DRY( 25,164)   DRY( 25,165)   DRY( 25,166)   
    DRY( 25,167)   DRY( 25,168)   DRY( 25,169)   DRY( 25,170)   DRY( 25,171)   
    DRY( 25,172)   DRY( 25,173)   DRY( 25,174)   DRY( 25,175)   DRY( 25,176)   
    DRY( 25,177)   DRY( 25,178)   DRY( 25,179)   DRY( 25,180)   DRY( 25,181)   
    DRY( 25,182)   DRY( 25,183)   DRY( 25,184)   DRY( 25,185)   DRY( 25,186)   
    DRY( 25,187)   DRY( 25,188)   DRY( 25,189)   DRY( 25,190)   DRY( 25,191)   
    DRY( 25,192)   DRY( 25,193)   DRY( 25,194)   DRY( 25,195)   DRY( 25,196)   
    DRY( 25,197)   DRY( 25,198)   DRY( 25,199)   DRY( 25,200)   DRY( 25,201)   
    DRY( 25,202)   DRY( 25,203)   DRY( 25,204)   DRY( 25,205)   DRY( 25,206)   
    DRY( 25,207)   DRY( 25,208)   DRY( 25,209)   DRY( 25,210)   DRY( 25,211)   
    DRY( 25,212)   DRY( 26,  1)   DRY( 26,  2)   DRY( 26,  3)   DRY( 26,  4)   
    DRY( 26,  5)   DRY( 26,  6)   DRY( 26,  7)   DRY( 26,  8)   DRY( 26,  9)   
    DRY( 26, 10)   DRY( 26, 11)   DRY( 26, 12)   DRY( 26, 13)   DRY( 26, 14)   
    DRY( 26, 15)   DRY( 26, 16)   DRY( 26, 17)   DRY( 26, 18)   DRY( 26, 19)   
    DRY( 26, 20)   DRY( 26, 21)   DRY( 26, 22)   DRY( 26, 23)   DRY( 26, 24)   
    DRY( 26, 25)   DRY( 26, 26)   DRY( 26, 27)   DRY( 26, 28)   DRY( 26, 29)   
    DRY( 26, 30)   DRY( 26, 31)   DRY( 26, 32)   DRY( 26, 33)   DRY( 26, 34)   
    DRY( 26, 35)   DRY( 26, 36)   DRY( 26, 37)   DRY( 26, 38)   DRY( 26, 39)   
    DRY( 26, 40)   DRY( 26, 41)   DRY( 26, 42)   DRY( 26, 43)   DRY( 26, 44)   
    DRY( 26, 45)   DRY( 26, 46)   DRY( 26, 47)   DRY( 26, 48)   DRY( 26, 49)   
    DRY( 26, 50)   DRY( 26, 51)   DRY( 26, 52)   DRY( 26, 53)   DRY( 26, 54)   
    DRY( 26, 55)   DRY( 26, 56)   DRY( 26, 57)   DRY( 26, 58)   DRY( 26, 59)   
    DRY( 26, 60)   DRY( 26, 61)   DRY( 26, 62)   DRY( 26, 63)   DRY( 26, 64)   
    DRY( 26, 65)   DRY( 26, 66)   DRY( 26, 67)   DRY( 26, 68)   DRY( 26, 69)   
    DRY( 26, 70)   DRY( 26, 71)   DRY( 26, 72)   DRY( 26, 73)   DRY( 26, 74)   
    DRY( 26, 75)   DRY( 26, 76)   DRY( 26, 77)   DRY( 26, 78)   DRY( 26, 79)   
    DRY( 26, 80)   DRY( 26, 81)   DRY( 26, 82)   DRY( 26, 83)   DRY( 26, 84)   
    DRY( 26, 85)   DRY( 26, 86)   DRY( 26, 87)   DRY( 26, 88)   DRY( 26, 89)   
    DRY( 26, 90)   DRY( 26, 91)   DRY( 26, 92)   DRY( 26, 93)   DRY( 26, 94)   
    DRY( 26, 95)   DRY( 26, 96)   DRY( 26, 97)   DRY( 26, 98)   DRY( 26, 99)   
    DRY( 26,100)   DRY( 26,101)   DRY( 26,102)   DRY( 26,103)   DRY( 26,104)   
    DRY( 26,105)   DRY( 26,106)   DRY( 26,107)   DRY( 26,108)   DRY( 26,109)   
    DRY( 26,110)   DRY( 26,111)   DRY( 26,112)   DRY( 26,113)   DRY( 26,114)   
    DRY( 26,115)   DRY( 26,116)   DRY( 26,117)   DRY( 26,118)   DRY( 26,119)   
    DRY( 26,120)   DRY( 26,121)   DRY( 26,122)   DRY( 26,123)   DRY( 26,124)   
    DRY( 26,125)   DRY( 26,126)   DRY( 26,127)   DRY( 26,128)   DRY( 26,129)   
    DRY( 26,130)   DRY( 26,131)   DRY( 26,132)   DRY( 26,133)   DRY( 26,134)   
    DRY( 26,135)   DRY( 26,136)   DRY( 26,137)   DRY( 26,138)   DRY( 26,139)   
    DRY( 26,140)   DRY( 26,141)   DRY( 26,142)   DRY( 26,143)   DRY( 26,144)   
    DRY( 26,145)   DRY( 26,146)   DRY( 26,147)   DRY( 26,148)   DRY( 26,149)   
    DRY( 26,150)   DRY( 26,151)   DRY( 26,152)   DRY( 26,153)   DRY( 26,154)   
    DRY( 26,155)   DRY( 26,156)   DRY( 26,157)   DRY( 26,158)   DRY( 26,159)   
    DRY( 26,160)   DRY( 26,161)   DRY( 26,162)   DRY( 26,163)   DRY( 26,164)   
    DRY( 26,165)   DRY( 26,166)   DRY( 26,167)   DRY( 26,168)   DRY( 26,169)   
    DRY( 26,170)   DRY( 26,171)   DRY( 26,172)   DRY( 26,173)   DRY( 26,174)   
    DRY( 26,175)   DRY( 26,176)   DRY( 26,177)   DRY( 26,178)   DRY( 26,179)   
    DRY( 26,180)   DRY( 26,181)   DRY( 26,182)   DRY( 26,183)   DRY( 26,184)   
    DRY( 26,185)   DRY( 26,186)   DRY( 26,187)   DRY( 26,188)   DRY( 26,189)   
    DRY( 26,190)   DRY( 26,191)   DRY( 26,192)   DRY( 26,193)   DRY( 26,194)   
    DRY( 26,195)   DRY( 26,196)   DRY( 26,197)   DRY( 26,198)   DRY( 26,199)   
    DRY( 26,200)   DRY( 26,201)   DRY( 26,202)   DRY( 26,203)   DRY( 26,204)   
    DRY( 26,205)   DRY( 26,206)   DRY( 26,207)   DRY( 26,208)   DRY( 26,209)   
    DRY( 26,210)   DRY( 26,211)   DRY( 26,212)   DRY( 26,213)   DRY( 26,214)   
    DRY( 27,  1)   DRY( 27,  2)   DRY( 27,  3)   DRY( 27,  4)   DRY( 27,  5)   
    DRY( 27,  6)   DRY( 27,  7)   DRY( 27,  8)   DRY( 27,  9)   DRY( 27, 10)   
    DRY( 27, 11)   DRY( 27, 12)   DRY( 27, 13)   DRY( 27, 14)   DRY( 27, 15)   
    DRY( 27, 16)   DRY( 27, 17)   DRY( 27, 18)   DRY( 27, 19)   DRY( 27, 20)   
    DRY( 27, 21)   DRY( 27, 22)   DRY( 27, 23)   DRY( 27, 24)   DRY( 27, 25)   
    DRY( 27, 26)   DRY( 27, 27)   DRY( 27, 28)   DRY( 27, 29)   DRY( 27, 30)   
    DRY( 27, 31)   DRY( 27, 32)   DRY( 27, 33)   DRY( 27, 34)   DRY( 27, 35)   
    DRY( 27, 36)   DRY( 27, 37)   DRY( 27, 38)   DRY( 27, 39)   DRY( 27, 40)   
    DRY( 27, 41)   DRY( 27, 42)   DRY( 27, 43)   DRY( 27, 44)   DRY( 27, 45)   
    DRY( 27, 46)   DRY( 27, 47)   DRY( 27, 48)   DRY( 27, 49)   DRY( 27, 50)   
    DRY( 27, 51)   DRY( 27, 52)   DRY( 27, 53)   DRY( 27, 54)   DRY( 27, 55)   
    DRY( 27, 56)   DRY( 27, 57)   DRY( 27, 58)   DRY( 27, 59)   DRY( 27, 60)   
    DRY( 27, 61)   DRY( 27, 62)   DRY( 27, 63)   DRY( 27, 64)   DRY( 27, 65)   
    DRY( 27, 66)   DRY( 27, 67)   DRY( 27, 68)   DRY( 27, 69)   DRY( 27, 70)   
    DRY( 27, 71)   DRY( 27, 72)   DRY( 27, 73)   DRY( 27, 74)   DRY( 27, 75)   
    DRY( 27, 76)   DRY( 27, 77)   DRY( 27, 78)   DRY( 27, 79)   DRY( 27, 80)   
    DRY( 27, 81)   DRY( 27, 82)   DRY( 27, 83)   DRY( 27, 84)   DRY( 27, 85)   
    DRY( 27, 86)   DRY( 27, 87)   DRY( 27, 88)   DRY( 27, 89)   DRY( 27, 90)   
    DRY( 27, 91)   DRY( 27, 92)   DRY( 27, 93)   DRY( 27, 94)   DRY( 27, 95)   
    DRY( 27, 96)   DRY( 27, 97)   DRY( 27, 98)   DRY( 27, 99)   DRY( 27,100)   
    DRY( 27,101)   DRY( 27,102)   DRY( 27,103)   DRY( 27,104)   DRY( 27,105)   
    DRY( 27,106)   DRY( 27,107)   DRY( 27,108)   DRY( 27,109)   DRY( 27,110)   
    DRY( 27,111)   DRY( 27,112)   DRY( 27,113)   DRY( 27,114)   DRY( 27,115)   
    DRY( 27,116)   DRY( 27,117)   DRY( 27,118)   DRY( 27,119)   DRY( 27,120)   
    DRY( 27,121)   DRY( 27,122)   DRY( 27,123)   DRY( 27,124)   DRY( 27,125)   
    DRY( 27,126)   DRY( 27,127)   DRY( 27,128)   DRY( 27,129)   DRY( 27,130)   
    DRY( 27,131)   DRY( 27,132)   DRY( 27,133)   DRY( 27,134)   DRY( 27,135)   
    DRY( 27,136)   DRY( 27,137)   DRY( 27,138)   DRY( 27,139)   DRY( 27,140)   
    DRY( 27,141)   DRY( 27,142)   DRY( 27,143)   DRY( 27,144)   DRY( 27,145)   
    DRY( 27,146)   DRY( 27,147)   DRY( 27,148)   DRY( 27,149)   DRY( 27,150)   
    DRY( 27,151)   DRY( 27,152)   DRY( 27,153)   DRY( 27,154)   DRY( 27,155)   
    DRY( 27,156)   DRY( 27,157)   DRY( 27,158)   DRY( 27,159)   DRY( 27,160)   
    DRY( 27,161)   DRY( 27,162)   DRY( 27,163)   DRY( 27,164)   DRY( 27,165)   
    DRY( 27,166)   DRY( 27,167)   DRY( 27,168)   DRY( 27,169)   DRY( 27,170)   
    DRY( 27,171)   DRY( 27,172)   DRY( 27,173)   DRY( 27,174)   DRY( 27,175)   
    DRY( 27,176)   DRY( 27,177)   DRY( 27,178)   DRY( 27,179)   DRY( 27,180)   
    DRY( 27,181)   DRY( 27,182)   DRY( 27,183)   DRY( 27,184)   DRY( 27,185)   
    DRY( 27,186)   DRY( 27,187)   DRY( 27,188)   DRY( 27,189)   DRY( 27,190)   
    DRY( 27,191)   DRY( 27,192)   DRY( 27,193)   DRY( 27,194)   DRY( 27,195)   
    DRY( 27,196)   DRY( 27,197)   DRY( 27,198)   DRY( 27,199)   DRY( 27,200)   
    DRY( 27,201)   DRY( 27,202)   DRY( 27,203)   DRY( 27,204)   DRY( 27,205)   
    DRY( 27,206)   DRY( 27,207)   DRY( 27,208)   DRY( 27,209)   DRY( 27,210)   
    DRY( 27,211)   DRY( 27,212)   DRY( 27,213)   DRY( 27,214)   DRY( 27,215)   
    DRY( 28,  1)   DRY( 28,  2)   DRY( 28,  3)   DRY( 28,  4)   DRY( 28,  5)   
    DRY( 28,  6)   DRY( 28,  7)   DRY( 28,  8)   DRY( 28,  9)   DRY( 28, 10)   
    DRY( 28, 11)   DRY( 28, 12)   DRY( 28, 13)   DRY( 28, 14)   DRY( 28, 15)   
    DRY( 28, 16)   DRY( 28, 17)   DRY( 28, 18)   DRY( 28, 19)   DRY( 28, 20)   
    DRY( 28, 21)   DRY( 28, 22)   DRY( 28, 23)   DRY( 28, 24)   DRY( 28, 25)   
    DRY( 28, 26)   DRY( 28, 27)   DRY( 28, 28)   DRY( 28, 29)   DRY( 28, 30)   
    DRY( 28, 31)   DRY( 28, 32)   DRY( 28, 33)   DRY( 28, 34)   DRY( 28, 35)   
    DRY( 28, 36)   DRY( 28, 37)   DRY( 28, 38)   DRY( 28, 39)   DRY( 28, 40)   
    DRY( 28, 41)   DRY( 28, 42)   DRY( 28, 43)   DRY( 28, 44)   DRY( 28, 45)   
    DRY( 28, 46)   DRY( 28, 47)   DRY( 28, 48)   DRY( 28, 49)   DRY( 28, 50)   
    DRY( 28, 51)   DRY( 28, 52)   DRY( 28, 53)   DRY( 28, 54)   DRY( 28, 55)   
    DRY( 28, 56)   DRY( 28, 57)   DRY( 28, 58)   DRY( 28, 59)   DRY( 28, 60)   
    DRY( 28, 61)   DRY( 28, 62)   DRY( 28, 63)   DRY( 28, 64)   DRY( 28, 65)   
    DRY( 28, 66)   DRY( 28, 67)   DRY( 28, 68)   DRY( 28, 69)   DRY( 28, 70)   
    DRY( 28, 71)   DRY( 28, 72)   DRY( 28, 73)   DRY( 28, 74)   DRY( 28, 75)   
    DRY( 28, 76)   DRY( 28, 77)   DRY( 28, 78)   DRY( 28, 79)   DRY( 28, 80)   
    DRY( 28, 81)   DRY( 28, 82)   DRY( 28, 83)   DRY( 28, 84)   DRY( 28, 85)   
    DRY( 28, 86)   DRY( 28, 87)   DRY( 28, 88)   DRY( 28, 89)   DRY( 28, 90)   
    DRY( 28, 91)   DRY( 28, 92)   DRY( 28, 93)   DRY( 28, 94)   DRY( 28, 95)   
    DRY( 28, 96)   DRY( 28, 97)   DRY( 28, 98)   DRY( 28, 99)   DRY( 28,100)   
    DRY( 28,101)   DRY( 28,102)   DRY( 28,103)   DRY( 28,104)   DRY( 28,105)   
    DRY( 28,106)   DRY( 28,107)   DRY( 28,108)   DRY( 28,109)   DRY( 28,110)   
    DRY( 28,111)   DRY( 28,112)   DRY( 28,113)   DRY( 28,114)   DRY( 28,115)   
    DRY( 28,116)   DRY( 28,117)   DRY( 28,118)   DRY( 28,119)   DRY( 28,120)   
    DRY( 28,121)   DRY( 28,122)   DRY( 28,123)   DRY( 28,124)   DRY( 28,125)   
    DRY( 28,126)   DRY( 28,127)   DRY( 28,128)   DRY( 28,129)   DRY( 28,130)   
    DRY( 28,131)   DRY( 28,132)   DRY( 28,133)   DRY( 28,134)   DRY( 28,135)   
    DRY( 28,136)   DRY( 28,137)   DRY( 28,138)   DRY( 28,139)   DRY( 28,140)   
    DRY( 28,141)   DRY( 28,142)   DRY( 28,143)   DRY( 28,144)   DRY( 28,145)   
    DRY( 28,146)   DRY( 28,147)   DRY( 28,148)   DRY( 28,149)   DRY( 28,150)   
    DRY( 28,151)   DRY( 28,152)   DRY( 28,153)   DRY( 28,154)   DRY( 28,155)   
    DRY( 28,156)   DRY( 28,157)   DRY( 28,158)   DRY( 28,159)   DRY( 28,160)   
    DRY( 28,161)   DRY( 28,162)   DRY( 28,163)   DRY( 28,164)   DRY( 28,165)   
    DRY( 28,166)   DRY( 28,167)   DRY( 28,168)   DRY( 28,169)   DRY( 28,170)   
    DRY( 28,171)   DRY( 28,172)   DRY( 28,173)   DRY( 28,174)   DRY( 28,175)   
    DRY( 28,176)   DRY( 28,177)   DRY( 28,178)   DRY( 28,179)   DRY( 28,180)   
    DRY( 28,181)   DRY( 28,182)   DRY( 28,183)   DRY( 28,184)   DRY( 28,185)   
    DRY( 28,186)   DRY( 28,187)   DRY( 28,188)   DRY( 28,189)   DRY( 28,190)   
    DRY( 28,191)   DRY( 28,192)   DRY( 28,193)   DRY( 28,194)   DRY( 28,195)   
    DRY( 28,196)   DRY( 28,197)   DRY( 28,198)   DRY( 28,199)   DRY( 28,200)   
    DRY( 28,201)   DRY( 28,202)   DRY( 28,203)   DRY( 28,204)   DRY( 28,205)   
    DRY( 28,206)   DRY( 28,207)   DRY( 28,208)   DRY( 28,209)   DRY( 28,210)   
    DRY( 28,211)   DRY( 28,212)   DRY( 28,213)   DRY( 28,214)   DRY( 28,215)   
    DRY( 28,216)   DRY( 28,217)   DRY( 29,  1)   DRY( 29,  2)   DRY( 29,  3)   
    DRY( 29,  4)   DRY( 29,  5)   DRY( 29,  6)   DRY( 29,  7)   DRY( 29,  8)   
    DRY( 29,  9)   DRY( 29, 10)   DRY( 29, 11)   DRY( 29, 12)   DRY( 29, 13)   
    DRY( 29, 14)   DRY( 29, 15)   DRY( 29, 16)   DRY( 29, 17)   DRY( 29, 18)   
    DRY( 29, 19)   DRY( 29, 20)   DRY( 29, 21)   DRY( 29, 22)   DRY( 29, 23)   
    DRY( 29, 24)   DRY( 29, 25)   DRY( 29, 26)   DRY( 29, 27)   DRY( 29, 28)   
    DRY( 29, 29)   DRY( 29, 30)   DRY( 29, 31)   DRY( 29, 32)   DRY( 29, 33)   
    DRY( 29, 34)   DRY( 29, 35)   DRY( 29, 36)   DRY( 29, 37)   DRY( 29, 38)   
    DRY( 29, 39)   DRY( 29, 40)   DRY( 29, 41)   DRY( 29, 42)   DRY( 29, 43)   
    DRY( 29, 44)   DRY( 29, 45)   DRY( 29, 46)   DRY( 29, 47)   DRY( 29, 48)   
    DRY( 29, 49)   DRY( 29, 50)   DRY( 29, 51)   DRY( 29, 52)   DRY( 29, 53)   
    DRY( 29, 54)   DRY( 29, 55)   DRY( 29, 56)   DRY( 29, 57)   DRY( 29, 58)   
    DRY( 29, 59)   DRY( 29, 60)   DRY( 29, 61)   DRY( 29, 62)   DRY( 29, 63)   
    DRY( 29, 64)   DRY( 29, 65)   DRY( 29, 66)   DRY( 29, 67)   DRY( 29, 68)   
    DRY( 29, 69)   DRY( 29, 70)   DRY( 29, 71)   DRY( 29, 72)   DRY( 29, 73)   
    DRY( 29, 74)   DRY( 29, 75)   DRY( 29, 76)   DRY( 29, 77)   DRY( 29, 78)   
    DRY( 29, 79)   DRY( 29, 80)   DRY( 29, 81)   DRY( 29, 82)   DRY( 29, 83)   
    DRY( 29, 84)   DRY( 29, 85)   DRY( 29, 86)   DRY( 29, 87)   DRY( 29, 88)   
    DRY( 29, 89)   DRY( 29, 90)   DRY( 29, 91)   DRY( 29, 92)   DRY( 29, 93)   
    DRY( 29, 94)   DRY( 29, 95)   DRY( 29, 96)   DRY( 29, 97)   DRY( 29, 98)   
    DRY( 29, 99)   DRY( 29,100)   DRY( 29,101)   DRY( 29,102)   DRY( 29,103)   
    DRY( 29,104)   DRY( 29,105)   DRY( 29,106)   DRY( 29,107)   DRY( 29,108)   
    DRY( 29,109)   DRY( 29,110)   DRY( 29,111)   DRY( 29,112)   DRY( 29,113)   
    DRY( 29,114)   DRY( 29,115)   DRY( 29,116)   DRY( 29,117)   DRY( 29,118)   
    DRY( 29,119)   DRY( 29,120)   DRY( 29,121)   DRY( 29,122)   DRY( 29,123)   
    DRY( 29,124)   DRY( 29,125)   DRY( 29,126)   DRY( 29,127)   DRY( 29,128)   
    DRY( 29,129)   DRY( 29,130)   DRY( 29,131)   DRY( 29,132)   DRY( 29,133)   
    DRY( 29,134)   DRY( 29,135)   DRY( 29,136)   DRY( 29,137)   DRY( 29,138)   
    DRY( 29,139)   DRY( 29,140)   DRY( 29,141)   DRY( 29,142)   DRY( 29,143)   
    DRY( 29,144)   DRY( 29,145)   DRY( 29,146)   DRY( 29,147)   DRY( 29,148)   
    DRY( 29,149)   DRY( 29,150)   DRY( 29,151)   DRY( 29,152)   DRY( 29,153)   
    DRY( 29,154)   DRY( 29,155)   DRY( 29,156)   DRY( 29,157)   DRY( 29,158)   
    DRY( 29,159)   DRY( 29,160)   DRY( 29,161)   DRY( 29,162)   DRY( 29,163)   
    DRY( 29,164)   DRY( 29,165)   DRY( 29,166)   DRY( 29,167)   DRY( 29,168)   
    DRY( 29,169)   DRY( 29,170)   DRY( 29,171)   DRY( 29,172)   DRY( 29,173)   
    DRY( 29,174)   DRY( 29,175)   DRY( 29,176)   DRY( 29,177)   DRY( 29,178)   
    DRY( 29,179)   DRY( 29,180)   DRY( 29,181)   DRY( 29,182)   DRY( 29,183)   
    DRY( 29,184)   DRY( 29,185)   DRY( 29,186)   DRY( 29,187)   DRY( 29,188)   
    DRY( 29,189)   DRY( 29,190)   DRY( 29,191)   DRY( 29,192)   DRY( 29,193)   
    DRY( 29,194)   DRY( 29,195)   DRY( 29,196)   DRY( 29,197)   DRY( 29,198)   
    DRY( 29,199)   DRY( 29,200)   DRY( 29,201)   DRY( 29,202)   DRY( 29,203)   
    DRY( 29,204)   DRY( 29,205)   DRY( 29,206)   DRY( 29,207)   DRY( 29,208)   
    DRY( 29,209)   DRY( 29,210)   DRY( 29,211)   DRY( 29,212)   DRY( 29,213)   
    DRY( 29,214)   DRY( 29,215)   DRY( 29,216)   DRY( 29,217)   DRY( 29,218)   
    DRY( 29,219)   DRY( 29,220)   DRY( 30,  1)   DRY( 30,  2)   DRY( 30,  3)   
    DRY( 30,  4)   DRY( 30,  5)   DRY( 30,  6)   DRY( 30,  7)   DRY( 30,  8)   
    DRY( 30,  9)   DRY( 30, 10)   DRY( 30, 11)   DRY( 30, 12)   DRY( 30, 13)   
    DRY( 30, 14)   DRY( 30, 15)   DRY( 30, 16)   DRY( 30, 17)   DRY( 30, 18)   
    DRY( 30, 19)   DRY( 30, 20)   DRY( 30, 21)   DRY( 30, 22)   DRY( 30, 23)   
    DRY( 30, 24)   DRY( 30, 25)   DRY( 30, 26)   DRY( 30, 27)   DRY( 30, 28)   
    DRY( 30, 29)   DRY( 30, 30)   DRY( 30, 31)   DRY( 30, 32)   DRY( 30, 33)   
    DRY( 30, 34)   DRY( 30, 35)   DRY( 30, 36)   DRY( 30, 37)   DRY( 30, 38)   
    DRY( 30, 39)   DRY( 30, 40)   DRY( 30, 41)   DRY( 30, 42)   DRY( 30, 43)   
    DRY( 30, 44)   DRY( 30, 45)   DRY( 30, 46)   DRY( 30, 47)   DRY( 30, 48)   
    DRY( 30, 49)   DRY( 30, 50)   DRY( 30, 51)   DRY( 30, 52)   DRY( 30, 53)   
    DRY( 30, 54)   DRY( 30, 55)   DRY( 30, 56)   DRY( 30, 57)   DRY( 30, 58)   
    DRY( 30, 59)   DRY( 30, 60)   DRY( 30, 61)   DRY( 30, 62)   DRY( 30, 63)   
    DRY( 30, 64)   DRY( 30, 65)   DRY( 30, 66)   DRY( 30, 67)   DRY( 30, 68)   
    DRY( 30, 69)   DRY( 30, 70)   DRY( 30, 71)   DRY( 30, 72)   DRY( 30, 73)   
    DRY( 30, 74)   DRY( 30, 75)   DRY( 30, 76)   DRY( 30, 77)   DRY( 30, 78)   
    DRY( 30, 79)   DRY( 30, 80)   DRY( 30, 81)   DRY( 30, 82)   DRY( 30, 83)   
    DRY( 30, 84)   DRY( 30, 85)   DRY( 30, 86)   DRY( 30, 87)   DRY( 30, 88)   
    DRY( 30, 89)   DRY( 30, 90)   DRY( 30, 91)   DRY( 30, 92)   DRY( 30, 93)   
    DRY( 30, 94)   DRY( 30, 95)   DRY( 30, 96)   DRY( 30, 97)   DRY( 30, 98)   
    DRY( 30, 99)   DRY( 30,100)   DRY( 30,101)   DRY( 30,102)   DRY( 30,103)   
    DRY( 30,104)   DRY( 30,105)   DRY( 30,106)   DRY( 30,107)   DRY( 30,108)   
    DRY( 30,109)   DRY( 30,110)   DRY( 30,111)   DRY( 30,112)   DRY( 30,113)   
    DRY( 30,114)   DRY( 30,115)   DRY( 30,116)   DRY( 30,117)   DRY( 30,118)   
    DRY( 30,119)   DRY( 30,120)   DRY( 30,121)   DRY( 30,122)   DRY( 30,123)   
    DRY( 30,124)   DRY( 30,125)   DRY( 30,126)   DRY( 30,127)   DRY( 30,128)   
    DRY( 30,129)   DRY( 30,130)   DRY( 30,131)   DRY( 30,132)   DRY( 30,133)   
    DRY( 30,134)   DRY( 30,135)   DRY( 30,136)   DRY( 30,137)   DRY( 30,138)   
    DRY( 30,139)   DRY( 30,140)   DRY( 30,141)   DRY( 30,142)   DRY( 30,143)   
    DRY( 30,144)   DRY( 30,145)   DRY( 30,146)   DRY( 30,147)   DRY( 30,148)   
    DRY( 30,149)   DRY( 30,150)   DRY( 30,151)   DRY( 30,152)   DRY( 30,153)   
    DRY( 30,154)   DRY( 30,155)   DRY( 30,156)   DRY( 30,157)   DRY( 30,158)   
    DRY( 30,159)   DRY( 30,160)   DRY( 30,161)   DRY( 30,162)   DRY( 30,163)   
    DRY( 30,164)   DRY( 30,165)   DRY( 30,166)   DRY( 30,167)   DRY( 30,168)   
    DRY( 30,169)   DRY( 30,170)   DRY( 30,171)   DRY( 30,172)   DRY( 30,173)   
    DRY( 30,174)   DRY( 30,175)   DRY( 30,176)   DRY( 30,177)   DRY( 30,178)   
    DRY( 30,179)   DRY( 30,180)   DRY( 30,181)   DRY( 30,182)   DRY( 30,183)   
    DRY( 30,184)   DRY( 30,185)   DRY( 30,186)   DRY( 30,187)   DRY( 30,188)   
    DRY( 30,189)   DRY( 30,190)   DRY( 30,191)   DRY( 30,192)   DRY( 30,193)   
    DRY( 30,194)   DRY( 30,195)   DRY( 30,196)   DRY( 30,197)   DRY( 30,198)   
    DRY( 30,199)   DRY( 30,200)   DRY( 30,201)   DRY( 30,202)   DRY( 30,203)   
    DRY( 30,204)   DRY( 30,205)   DRY( 30,206)   DRY( 30,207)   DRY( 30,208)   
    DRY( 30,209)   DRY( 30,210)   DRY( 30,211)   DRY( 30,212)   DRY( 30,213)   
    DRY( 30,214)   DRY( 30,215)   DRY( 30,216)   DRY( 30,217)   DRY( 30,218)   
    DRY( 30,219)   DRY( 30,220)   DRY( 31,  1)   DRY( 31,  2)   DRY( 31,  3)   
    DRY( 31,  4)   DRY( 31,  5)   DRY( 31,  6)   DRY( 31,  7)   DRY( 31,  8)   
    DRY( 31,  9)   DRY( 31, 10)   DRY( 31, 11)   DRY( 31, 12)   DRY( 31, 13)   
    DRY( 31, 14)   DRY( 31, 15)   DRY( 31, 16)   DRY( 31, 17)   DRY( 31, 18)   
    DRY( 31, 19)   DRY( 31, 20)   DRY( 31, 21)   DRY( 31, 22)   DRY( 31, 23)   
    DRY( 31, 24)   DRY( 31, 25)   DRY( 31, 26)   DRY( 31, 27)   DRY( 31, 28)   
    DRY( 31, 29)   DRY( 31, 30)   DRY( 31, 31)   DRY( 31, 32)   DRY( 31, 33)   
    DRY( 31, 34)   DRY( 31, 35)   DRY( 31, 36)   DRY( 31, 37)   DRY( 31, 38)   
    DRY( 31, 39)   DRY( 31, 40)   DRY( 31, 41)   DRY( 31, 42)   DRY( 31, 43)   
    DRY( 31, 44)   DRY( 31, 45)   DRY( 31, 46)   DRY( 31, 47)   DRY( 31, 48)   
    DRY( 31, 49)   DRY( 31, 50)   DRY( 31, 51)   DRY( 31, 52)   DRY( 31, 53)   
    DRY( 31, 54)   DRY( 31, 55)   DRY( 31, 56)   DRY( 31, 57)   DRY( 31, 58)   
    DRY( 31, 59)   DRY( 31, 60)   DRY( 31, 61)   DRY( 31, 62)   DRY( 31, 63)   
    DRY( 31, 64)   DRY( 31, 65)   DRY( 31, 66)   DRY( 31, 67)   DRY( 31, 68)   
    DRY( 31, 69)   DRY( 31, 70)   DRY( 31, 71)   DRY( 31, 72)   DRY( 31, 73)   
    DRY( 31, 74)   DRY( 31, 75)   DRY( 31, 76)   DRY( 31, 77)   DRY( 31, 78)   
    DRY( 31, 79)   DRY( 31, 80)   DRY( 31, 81)   DRY( 31, 82)   DRY( 31, 83)   
    DRY( 31, 84)   DRY( 31, 85)   DRY( 31, 86)   DRY( 31, 87)   DRY( 31, 88)   
    DRY( 31, 89)   DRY( 31, 90)   DRY( 31, 91)   DRY( 31, 92)   DRY( 31, 93)   
    DRY( 31, 94)   DRY( 31, 95)   DRY( 31, 96)   DRY( 31, 97)   DRY( 31, 98)   
    DRY( 31, 99)   DRY( 31,100)   DRY( 31,101)   DRY( 31,102)   DRY( 31,103)   
    DRY( 31,104)   DRY( 31,105)   DRY( 31,106)   DRY( 31,107)   DRY( 31,108)   
    DRY( 31,109)   DRY( 31,110)   DRY( 31,111)   DRY( 31,112)   DRY( 31,113)   
    DRY( 31,114)   DRY( 31,115)   DRY( 31,116)   DRY( 31,117)   DRY( 31,118)   
    DRY( 31,119)   DRY( 31,120)   DRY( 31,121)   DRY( 31,122)   DRY( 31,123)   
    DRY( 31,124)   DRY( 31,125)   DRY( 31,126)   DRY( 31,127)   DRY( 31,128)   
    DRY( 31,129)   DRY( 31,130)   DRY( 31,131)   DRY( 31,132)   DRY( 31,133)   
    DRY( 31,134)   DRY( 31,135)   DRY( 31,136)   DRY( 31,137)   DRY( 31,138)   
    DRY( 31,139)   DRY( 31,140)   DRY( 31,141)   DRY( 31,142)   DRY( 31,143)   
    DRY( 31,144)   DRY( 31,145)   DRY( 31,146)   DRY( 31,147)   DRY( 31,148)   
    DRY( 31,149)   DRY( 31,150)   DRY( 31,151)   DRY( 31,152)   DRY( 31,153)   
    DRY( 31,154)   DRY( 31,155)   DRY( 31,156)   DRY( 31,157)   DRY( 31,158)   
    DRY( 31,159)   DRY( 31,160)   DRY( 31,161)   DRY( 31,162)   DRY( 31,163)   
    DRY( 31,164)   DRY( 31,165)   DRY( 31,166)   DRY( 31,167)   DRY( 31,168)   
    DRY( 31,169)   DRY( 31,170)   DRY( 31,171)   DRY( 31,172)   DRY( 31,173)   
    DRY( 31,174)   DRY( 31,175)   DRY( 31,176)   DRY( 31,177)   DRY( 31,178)   
    DRY( 31,179)   DRY( 31,180)   DRY( 31,181)   DRY( 31,182)   DRY( 31,183)   
    DRY( 31,184)   DRY( 31,185)   DRY( 31,186)   DRY( 31,187)   DRY( 31,188)   
    DRY( 31,189)   DRY( 31,190)   DRY( 31,191)   DRY( 31,192)   DRY( 31,193)   
    DRY( 31,194)   DRY( 31,195)   DRY( 31,196)   DRY( 31,197)   DRY( 31,198)   
    DRY( 31,199)   DRY( 31,200)   DRY( 31,201)   DRY( 31,202)   DRY( 31,203)   
    DRY( 31,204)   DRY( 31,205)   DRY( 31,206)   DRY( 31,207)   DRY( 31,208)   
    DRY( 31,209)   DRY( 31,210)   DRY( 31,211)   DRY( 31,212)   DRY( 31,213)   
    DRY( 31,214)   DRY( 31,215)   DRY( 31,216)   DRY( 31,217)   DRY( 31,218)   
    DRY( 31,219)   DRY( 31,220)   DRY( 32,  1)   DRY( 32,  2)   DRY( 32,  3)   
    DRY( 32,  4)   DRY( 32,  5)   DRY( 32,  6)   DRY( 32,  7)   DRY( 32,  8)   
    DRY( 32,  9)   DRY( 32, 10)   DRY( 32, 11)   DRY( 32, 12)   DRY( 32, 13)   
    DRY( 32, 14)   DRY( 32, 15)   DRY( 32, 16)   DRY( 32, 17)   DRY( 32, 18)   
    DRY( 32, 19)   DRY( 32, 20)   DRY( 32, 21)   DRY( 32, 22)   DRY( 32, 23)   
    DRY( 32, 24)   DRY( 32, 25)   DRY( 32, 26)   DRY( 32, 27)   DRY( 32, 28)   
    DRY( 32, 29)   DRY( 32, 30)   DRY( 32, 31)   DRY( 32, 32)   DRY( 32, 33)   
    DRY( 32, 34)   DRY( 32, 35)   DRY( 32, 36)   DRY( 32, 37)   DRY( 32, 38)   
    DRY( 32, 39)   DRY( 32, 40)   DRY( 32, 41)   DRY( 32, 42)   DRY( 32, 43)   
    DRY( 32, 44)   DRY( 32, 45)   DRY( 32, 46)   DRY( 32, 47)   DRY( 32, 48)   
    DRY( 32, 49)   DRY( 32, 50)   DRY( 32, 51)   DRY( 32, 52)   DRY( 32, 53)   
    DRY( 32, 54)   DRY( 32, 55)   DRY( 32, 56)   DRY( 32, 57)   DRY( 32, 58)   
    DRY( 32, 59)   DRY( 32, 60)   DRY( 32, 61)   DRY( 32, 62)   DRY( 32, 63)   
    DRY( 32, 64)   DRY( 32, 65)   DRY( 32, 66)   DRY( 32, 67)   DRY( 32, 68)   
    DRY( 32, 69)   DRY( 32, 70)   DRY( 32, 71)   DRY( 32, 72)   DRY( 32, 73)   
    DRY( 32, 74)   DRY( 32, 75)   DRY( 32, 76)   DRY( 32, 77)   DRY( 32, 78)   
    DRY( 32, 79)   DRY( 32, 80)   DRY( 32, 81)   DRY( 32, 82)   DRY( 32, 83)   
    DRY( 32, 84)   DRY( 32, 85)   DRY( 32, 86)   DRY( 32, 87)   DRY( 32, 88)   
    DRY( 32, 89)   DRY( 32, 90)   DRY( 32, 91)   DRY( 32, 92)   DRY( 32, 93)   
    DRY( 32, 94)   DRY( 32, 95)   DRY( 32, 96)   DRY( 32, 97)   DRY( 32, 98)   
    DRY( 32, 99)   DRY( 32,100)   DRY( 32,101)   DRY( 32,102)   DRY( 32,103)   
    DRY( 32,104)   DRY( 32,105)   DRY( 32,106)   DRY( 32,107)   DRY( 32,108)   
    DRY( 32,109)   DRY( 32,110)   DRY( 32,111)   DRY( 32,112)   DRY( 32,113)   
    DRY( 32,114)   DRY( 32,115)   DRY( 32,116)   DRY( 32,117)   DRY( 32,118)   
    DRY( 32,119)   DRY( 32,120)   DRY( 32,121)   DRY( 32,122)   DRY( 32,123)   
    DRY( 32,124)   DRY( 32,125)   DRY( 32,126)   DRY( 32,127)   DRY( 32,128)   
    DRY( 32,129)   DRY( 32,130)   DRY( 32,131)   DRY( 32,132)   DRY( 32,133)   
    DRY( 32,134)   DRY( 32,135)   DRY( 32,136)   DRY( 32,137)   DRY( 32,138)   
    DRY( 32,139)   DRY( 32,140)   DRY( 32,141)   DRY( 32,142)   DRY( 32,143)   
    DRY( 32,144)   DRY( 32,145)   DRY( 32,146)   DRY( 32,147)   DRY( 32,148)   
    DRY( 32,149)   DRY( 32,150)   DRY( 32,151)   DRY( 32,152)   DRY( 32,153)   
    DRY( 32,154)   DRY( 32,155)   DRY( 32,156)   DRY( 32,157)   DRY( 32,158)   
    DRY( 32,159)   DRY( 32,160)   DRY( 32,161)   DRY( 32,162)   DRY( 32,163)   
    DRY( 32,164)   DRY( 32,165)   DRY( 32,166)   DRY( 32,167)   DRY( 32,168)   
    DRY( 32,169)   DRY( 32,170)   DRY( 32,171)   DRY( 32,172)   DRY( 32,173)   
    DRY( 32,174)   DRY( 32,175)   DRY( 32,176)   DRY( 32,177)   DRY( 32,178)   
    DRY( 32,179)   DRY( 32,180)   DRY( 32,181)   DRY( 32,182)   DRY( 32,183)   
    DRY( 32,184)   DRY( 32,185)   DRY( 32,186)   DRY( 32,187)   DRY( 32,188)   
    DRY( 32,189)   DRY( 32,190)   DRY( 32,191)   DRY( 32,192)   DRY( 32,193)   
    DRY( 32,194)   DRY( 32,195)   DRY( 32,196)   DRY( 32,197)   DRY( 32,198)   
    DRY( 32,199)   DRY( 32,200)   DRY( 32,201)   DRY( 32,202)   DRY( 32,203)   
    DRY( 32,204)   DRY( 32,205)   DRY( 32,206)   DRY( 32,207)   DRY( 32,208)   
    DRY( 32,209)   DRY( 32,210)   DRY( 32,211)   DRY( 32,212)   DRY( 32,213)   
    DRY( 32,214)   DRY( 32,215)   DRY( 32,216)   DRY( 32,217)   DRY( 32,218)   
    DRY( 32,219)   DRY( 32,220)   DRY( 33,  1)   DRY( 33,  2)   DRY( 33,  3)   
    DRY( 33,  4)   DRY( 33,  5)   DRY( 33,  6)   DRY( 33,  7)   DRY( 33,  8)   
    DRY( 33,  9)   DRY( 33, 10)   DRY( 33, 11)   DRY( 33, 12)   DRY( 33, 13)   
    DRY( 33, 14)   DRY( 33, 15)   DRY( 33, 16)   DRY( 33, 17)   DRY( 33, 18)   
    DRY( 33, 19)   DRY( 33, 20)   DRY( 33, 21)   DRY( 33, 22)   DRY( 33, 23)   
    DRY( 33, 24)   DRY( 33, 25)   DRY( 33, 26)   DRY( 33, 27)   DRY( 33, 28)   
    DRY( 33, 29)   DRY( 33, 30)   DRY( 33, 31)   DRY( 33, 32)   DRY( 33, 33)   
    DRY( 33, 34)   DRY( 33, 35)   DRY( 33, 36)   DRY( 33, 37)   DRY( 33, 38)   
    DRY( 33, 39)   DRY( 33, 40)   DRY( 33, 41)   DRY( 33, 42)   DRY( 33, 43)   
    DRY( 33, 44)   DRY( 33, 45)   DRY( 33, 46)   DRY( 33, 47)   DRY( 33, 48)   
    DRY( 33, 49)   DRY( 33, 50)   DRY( 33, 51)   DRY( 33, 52)   DRY( 33, 53)   
    DRY( 33, 54)   DRY( 33, 55)   DRY( 33, 56)   DRY( 33, 57)   DRY( 33, 58)   
    DRY( 33, 59)   DRY( 33, 60)   DRY( 33, 61)   DRY( 33, 62)   DRY( 33, 63)   
    DRY( 33, 64)   DRY( 33, 65)   DRY( 33, 66)   DRY( 33, 67)   DRY( 33, 68)   
    DRY( 33, 69)   DRY( 33, 70)   DRY( 33, 71)   DRY( 33, 72)   DRY( 33, 73)   
    DRY( 33, 74)   DRY( 33, 75)   DRY( 33, 76)   DRY( 33, 77)   DRY( 33, 78)   
    DRY( 33, 79)   DRY( 33, 80)   DRY( 33, 81)   DRY( 33, 82)   DRY( 33, 83)   
    DRY( 33, 84)   DRY( 33, 85)   DRY( 33, 86)   DRY( 33, 87)   DRY( 33, 88)   
    DRY( 33, 89)   DRY( 33, 90)   DRY( 33, 91)   DRY( 33, 92)   DRY( 33, 93)   
    DRY( 33, 94)   DRY( 33, 95)   DRY( 33, 96)   DRY( 33, 97)   DRY( 33, 98)   
    DRY( 33, 99)   DRY( 33,100)   DRY( 33,101)   DRY( 33,102)   DRY( 33,103)   
    DRY( 33,104)   DRY( 33,105)   DRY( 33,106)   DRY( 33,107)   DRY( 33,108)   
    DRY( 33,109)   DRY( 33,110)   DRY( 33,111)   DRY( 33,112)   DRY( 33,113)   
    DRY( 33,114)   DRY( 33,115)   DRY( 33,116)   DRY( 33,117)   DRY( 33,118)   
    DRY( 33,119)   DRY( 33,120)   DRY( 33,121)   DRY( 33,122)   DRY( 33,123)   
    DRY( 33,124)   DRY( 33,125)   DRY( 33,126)   DRY( 33,127)   DRY( 33,128)   
    DRY( 33,129)   DRY( 33,130)   DRY( 33,131)   DRY( 33,132)   DRY( 33,133)   
    DRY( 33,134)   DRY( 33,135)   DRY( 33,136)   DRY( 33,137)   DRY( 33,138)   
    DRY( 33,139)   DRY( 33,140)   DRY( 33,141)   DRY( 33,142)   DRY( 33,143)   
    DRY( 33,144)   DRY( 33,145)   DRY( 33,146)   DRY( 33,147)   DRY( 33,148)   
    DRY( 33,149)   DRY( 33,150)   DRY( 33,151)   DRY( 33,152)   DRY( 33,153)   
    DRY( 33,154)   DRY( 33,155)   DRY( 33,156)   DRY( 33,157)   DRY( 33,158)   
    DRY( 33,159)   DRY( 33,160)   DRY( 33,161)   DRY( 33,162)   DRY( 33,163)   
    DRY( 33,164)   DRY( 33,165)   DRY( 33,166)   DRY( 33,167)   DRY( 33,168)   
    DRY( 33,169)   DRY( 33,170)   DRY( 33,171)   DRY( 33,172)   DRY( 33,173)   
    DRY( 33,174)   DRY( 33,175)   DRY( 33,176)   DRY( 33,177)   DRY( 33,178)   
    DRY( 33,179)   DRY( 33,180)   DRY( 33,181)   DRY( 33,182)   DRY( 33,183)   
    DRY( 33,184)   DRY( 33,185)   DRY( 33,186)   DRY( 33,187)   DRY( 33,188)   
    DRY( 33,189)   DRY( 33,190)   DRY( 33,191)   DRY( 33,192)   DRY( 33,193)   
    DRY( 33,194)   DRY( 33,195)   DRY( 33,196)   DRY( 33,197)   DRY( 33,198)   
    DRY( 33,199)   DRY( 33,200)   DRY( 33,201)   DRY( 33,202)   DRY( 33,203)   
    DRY( 33,204)   DRY( 33,205)   DRY( 33,206)   DRY( 33,207)   DRY( 33,208)   
    DRY( 33,209)   DRY( 33,210)   DRY( 33,211)   DRY( 33,212)   DRY( 33,213)   
    DRY( 33,214)   DRY( 33,215)   DRY( 33,216)   DRY( 33,217)   DRY( 33,218)   
    DRY( 33,219)   DRY( 33,220)   DRY( 34,  1)   DRY( 34,  2)   DRY( 34,  3)   
    DRY( 34,  4)   DRY( 34,  5)   DRY( 34,  6)   DRY( 34,  7)   DRY( 34,  8)   
    DRY( 34,  9)   DRY( 34, 10)   DRY( 34, 11)   DRY( 34, 12)   DRY( 34, 13)   
    DRY( 34, 14)   DRY( 34, 15)   DRY( 34, 16)   DRY( 34, 17)   DRY( 34, 18)   
    DRY( 34, 19)   DRY( 34, 20)   DRY( 34, 21)   DRY( 34, 22)   DRY( 34, 23)   
    DRY( 34, 24)   DRY( 34, 25)   DRY( 34, 26)   DRY( 34, 27)   DRY( 34, 28)   
    DRY( 34, 29)   DRY( 34, 30)   DRY( 34, 31)   DRY( 34, 32)   DRY( 34, 33)   
    DRY( 34, 34)   DRY( 34, 35)   DRY( 34, 36)   DRY( 34, 37)   DRY( 34, 38)   
    DRY( 34, 39)   DRY( 34, 40)   DRY( 34, 41)   DRY( 34, 42)   DRY( 34, 43)   
    DRY( 34, 44)   DRY( 34, 45)   DRY( 34, 46)   DRY( 34, 47)   DRY( 34, 48)   
    DRY( 34, 49)   DRY( 34, 50)   DRY( 34, 51)   DRY( 34, 52)   DRY( 34, 53)   
    DRY( 34, 54)   DRY( 34, 55)   DRY( 34, 56)   DRY( 34, 57)   DRY( 34, 58)   
    DRY( 34, 59)   DRY( 34, 60)   DRY( 34, 61)   DRY( 34, 62)   DRY( 34, 63)   
    DRY( 34, 64)   DRY( 34, 65)   DRY( 34, 66)   DRY( 34, 67)   DRY( 34, 68)   
    DRY( 34, 69)   DRY( 34, 70)   DRY( 34, 71)   DRY( 34, 72)   DRY( 34, 73)   
    DRY( 34, 74)   DRY( 34, 75)   DRY( 34, 76)   DRY( 34, 77)   DRY( 34, 78)   
    DRY( 34, 79)   DRY( 34, 80)   DRY( 34, 81)   DRY( 34, 82)   DRY( 34, 83)   
    DRY( 34, 84)   DRY( 34, 85)   DRY( 34, 86)   DRY( 34, 87)   DRY( 34, 88)   
    DRY( 34, 89)   DRY( 34, 90)   DRY( 34, 91)   DRY( 34, 92)   DRY( 34, 93)   
    DRY( 34, 94)   DRY( 34, 95)   DRY( 34, 96)   DRY( 34, 97)   DRY( 34, 98)   
    DRY( 34, 99)   DRY( 34,100)   DRY( 34,101)   DRY( 34,102)   DRY( 34,103)   
    DRY( 34,104)   DRY( 34,105)   DRY( 34,106)   DRY( 34,107)   DRY( 34,108)   
    DRY( 34,109)   DRY( 34,110)   DRY( 34,111)   DRY( 34,112)   DRY( 34,113)   
    DRY( 34,114)   DRY( 34,115)   DRY( 34,116)   DRY( 34,117)   DRY( 34,118)   
    DRY( 34,119)   DRY( 34,120)   DRY( 34,121)   DRY( 34,122)   DRY( 34,123)   
    DRY( 34,124)   DRY( 34,125)   DRY( 34,126)   DRY( 34,127)   DRY( 34,128)   
    DRY( 34,129)   DRY( 34,130)   DRY( 34,131)   DRY( 34,132)   DRY( 34,133)   
    DRY( 34,134)   DRY( 34,135)   DRY( 34,136)   DRY( 34,137)   DRY( 34,138)   
    DRY( 34,139)   DRY( 34,140)   DRY( 34,141)   DRY( 34,142)   DRY( 34,143)   
    DRY( 34,144)   DRY( 34,145)   DRY( 34,146)   DRY( 34,147)   DRY( 34,148)   
    DRY( 34,149)   DRY( 34,150)   DRY( 34,151)   DRY( 34,152)   DRY( 34,153)   
    DRY( 34,154)   DRY( 34,155)   DRY( 34,156)   DRY( 34,157)   DRY( 34,158)   
    DRY( 34,159)   DRY( 34,160)   DRY( 34,161)   DRY( 34,162)   DRY( 34,163)   
    DRY( 34,164)   DRY( 34,165)   DRY( 34,166)   DRY( 34,167)   DRY( 34,168)   
    DRY( 34,169)   DRY( 34,170)   DRY( 34,171)   DRY( 34,172)   DRY( 34,173)   
    DRY( 34,174)   DRY( 34,175)   DRY( 34,176)   DRY( 34,177)   DRY( 34,178)   
    DRY( 34,179)   DRY( 34,180)   DRY( 34,181)   DRY( 34,182)   DRY( 34,183)   
    DRY( 34,184)   DRY( 34,185)   DRY( 34,186)   DRY( 34,187)   DRY( 34,188)   
    DRY( 34,189)   DRY( 34,190)   DRY( 34,191)   DRY( 34,192)   DRY( 34,193)   
    DRY( 34,194)   DRY( 34,195)   DRY( 34,196)   DRY( 34,197)   DRY( 34,198)   
    DRY( 34,199)   DRY( 34,200)   DRY( 34,201)   DRY( 34,202)   DRY( 34,203)   
    DRY( 34,204)   DRY( 34,205)   DRY( 34,206)   DRY( 34,207)   DRY( 34,208)   
    DRY( 34,209)   DRY( 34,210)   DRY( 34,211)   DRY( 34,212)   DRY( 34,213)   
    DRY( 34,214)   DRY( 34,215)   DRY( 34,216)   DRY( 34,217)   DRY( 34,218)   
    DRY( 34,219)   DRY( 34,220)   DRY( 35,  1)   DRY( 35,  2)   DRY( 35,  3)   
    DRY( 35,  4)   DRY( 35,  5)   DRY( 35,  6)   DRY( 35,  7)   DRY( 35,  8)   
    DRY( 35,  9)   DRY( 35, 10)   DRY( 35, 11)   DRY( 35, 12)   DRY( 35, 13)   
    DRY( 35, 14)   DRY( 35, 15)   DRY( 35, 16)   DRY( 35, 17)   DRY( 35, 18)   
    DRY( 35, 19)   DRY( 35, 20)   DRY( 35, 21)   DRY( 35, 22)   DRY( 35, 23)   
    DRY( 35, 24)   DRY( 35, 25)   DRY( 35, 26)   DRY( 35, 27)   DRY( 35, 28)   
    DRY( 35, 29)   DRY( 35, 30)   DRY( 35, 31)   DRY( 35, 32)   DRY( 35, 33)   
    DRY( 35, 34)   DRY( 35, 35)   DRY( 35, 36)   DRY( 35, 37)   DRY( 35, 38)   
    DRY( 35, 39)   DRY( 35, 40)   DRY( 35, 41)   DRY( 35, 42)   DRY( 35, 43)   
    DRY( 35, 44)   DRY( 35, 45)   DRY( 35, 46)   DRY( 35, 47)   DRY( 35, 48)   
    DRY( 35, 49)   DRY( 35, 50)   DRY( 35, 51)   DRY( 35, 52)   DRY( 35, 53)   
    DRY( 35, 54)   DRY( 35, 55)   DRY( 35, 56)   DRY( 35, 57)   DRY( 35, 58)   
    DRY( 35, 59)   DRY( 35, 60)   DRY( 35, 61)   DRY( 35, 62)   DRY( 35, 63)   
    DRY( 35, 64)   DRY( 35, 65)   DRY( 35, 66)   DRY( 35, 67)   DRY( 35, 68)   
    DRY( 35, 69)   DRY( 35, 70)   DRY( 35, 71)   DRY( 35, 72)   DRY( 35, 73)   
    DRY( 35, 74)   DRY( 35, 75)   DRY( 35, 76)   DRY( 35, 77)   DRY( 35, 78)   
    DRY( 35, 79)   DRY( 35, 80)   DRY( 35, 81)   DRY( 35, 82)   DRY( 35, 83)   
    DRY( 35, 84)   DRY( 35, 85)   DRY( 35, 86)   DRY( 35, 87)   DRY( 35, 88)   
    DRY( 35, 89)   DRY( 35, 90)   DRY( 35, 91)   DRY( 35, 92)   DRY( 35, 93)   
    DRY( 35, 94)   DRY( 35, 95)   DRY( 35, 96)   DRY( 35, 97)   DRY( 35, 98)   
    DRY( 35, 99)   DRY( 35,100)   DRY( 35,101)   DRY( 35,102)   DRY( 35,103)   
    DRY( 35,104)   DRY( 35,105)   DRY( 35,106)   DRY( 35,107)   DRY( 35,108)   
    DRY( 35,109)   DRY( 35,110)   DRY( 35,111)   DRY( 35,112)   DRY( 35,113)   
    DRY( 35,114)   DRY( 35,115)   DRY( 35,116)   DRY( 35,117)   DRY( 35,118)   
    DRY( 35,119)   DRY( 35,120)   DRY( 35,121)   DRY( 35,122)   DRY( 35,123)   
    DRY( 35,124)   DRY( 35,125)   DRY( 35,126)   DRY( 35,127)   DRY( 35,128)   
    DRY( 35,129)   DRY( 35,130)   DRY( 35,131)   DRY( 35,132)   DRY( 35,133)   
    DRY( 35,134)   DRY( 35,135)   DRY( 35,136)   DRY( 35,137)   DRY( 35,138)   
    DRY( 35,139)   DRY( 35,140)   DRY( 35,141)   DRY( 35,142)   DRY( 35,143)   
    DRY( 35,144)   DRY( 35,145)   DRY( 35,146)   DRY( 35,147)   DRY( 35,148)   
    DRY( 35,149)   DRY( 35,150)   DRY( 35,151)   DRY( 35,152)   DRY( 35,153)   
    DRY( 35,154)   DRY( 35,155)   DRY( 35,156)   DRY( 35,157)   DRY( 35,158)   
    DRY( 35,159)   DRY( 35,160)   DRY( 35,161)   DRY( 35,162)   DRY( 35,163)   
    DRY( 35,164)   DRY( 35,165)   DRY( 35,166)   DRY( 35,167)   DRY( 35,168)   
    DRY( 35,169)   DRY( 35,170)   DRY( 35,171)   DRY( 35,172)   DRY( 35,173)   
    DRY( 35,174)   DRY( 35,175)   DRY( 35,176)   DRY( 35,177)   DRY( 35,178)   
    DRY( 35,179)   DRY( 35,180)   DRY( 35,181)   DRY( 35,182)   DRY( 35,183)   
    DRY( 35,184)   DRY( 35,185)   DRY( 35,186)   DRY( 35,187)   DRY( 35,188)   
    DRY( 35,189)   DRY( 35,190)   DRY( 35,191)   DRY( 35,192)   DRY( 35,193)   
    DRY( 35,194)   DRY( 35,195)   DRY( 35,196)   DRY( 35,197)   DRY( 35,198)   
    DRY( 35,199)   DRY( 35,200)   DRY( 35,201)   DRY( 35,202)   DRY( 35,203)   
    DRY( 35,204)   DRY( 35,205)   DRY( 35,206)   DRY( 35,207)   DRY( 35,208)   
    DRY( 35,209)   DRY( 35,210)   DRY( 35,211)   DRY( 35,212)   DRY( 35,213)   
    DRY( 35,214)   DRY( 35,215)   DRY( 35,216)   DRY( 35,217)   DRY( 35,218)   
    DRY( 35,219)   DRY( 35,220)   DRY( 36,  1)   DRY( 36,  2)   DRY( 36,  3)   
    DRY( 36,  4)   DRY( 36,  5)   DRY( 36,  6)   DRY( 36,  7)   DRY( 36,  8)   
    DRY( 36,  9)   DRY( 36, 10)   DRY( 36, 11)   DRY( 36, 12)   DRY( 36, 13)   
    DRY( 36, 14)   DRY( 36, 15)   DRY( 36, 16)   DRY( 36, 17)   DRY( 36, 18)   
    DRY( 36, 19)   DRY( 36, 20)   DRY( 36, 21)   DRY( 36, 22)   DRY( 36, 23)   
    DRY( 36, 24)   DRY( 36, 25)   DRY( 36, 26)   DRY( 36, 27)   DRY( 36, 28)   
    DRY( 36, 29)   DRY( 36, 30)   DRY( 36, 31)   DRY( 36, 32)   DRY( 36, 33)   
    DRY( 36, 34)   DRY( 36, 35)   DRY( 36, 36)   DRY( 36, 37)   DRY( 36, 38)   
    DRY( 36, 39)   DRY( 36, 40)   DRY( 36, 41)   DRY( 36, 42)   DRY( 36, 43)   
    DRY( 36, 44)   DRY( 36, 45)   DRY( 36, 46)   DRY( 36, 47)   DRY( 36, 48)   
    DRY( 36, 49)   DRY( 36, 50)   DRY( 36, 51)   DRY( 36, 52)   DRY( 36, 53)   
    DRY( 36, 54)   DRY( 36, 55)   DRY( 36, 56)   DRY( 36, 57)   DRY( 36, 58)   
    DRY( 36, 59)   DRY( 36, 60)   DRY( 36, 61)   DRY( 36, 62)   DRY( 36, 63)   
    DRY( 36, 64)   DRY( 36, 65)   DRY( 36, 66)   DRY( 36, 67)   DRY( 36, 68)   
    DRY( 36, 69)   DRY( 36, 70)   DRY( 36, 71)   DRY( 36, 72)   DRY( 36, 73)   
    DRY( 36, 74)   DRY( 36, 75)   DRY( 36, 76)   DRY( 36, 77)   DRY( 36, 78)   
    DRY( 36, 79)   DRY( 36, 80)   DRY( 36, 81)   DRY( 36, 82)   DRY( 36, 83)   
    DRY( 36, 84)   DRY( 36, 85)   DRY( 36, 86)   DRY( 36, 87)   DRY( 36, 88)   
    DRY( 36, 89)   DRY( 36, 90)   DRY( 36, 91)   DRY( 36, 92)   DRY( 36, 93)   
    DRY( 36, 94)   DRY( 36, 95)   DRY( 36, 96)   DRY( 36, 97)   DRY( 36, 98)   
    DRY( 36, 99)   DRY( 36,100)   DRY( 36,101)   DRY( 36,102)   DRY( 36,103)   
    DRY( 36,104)   DRY( 36,105)   DRY( 36,106)   DRY( 36,107)   DRY( 36,108)   
    DRY( 36,109)   DRY( 36,110)   DRY( 36,111)   DRY( 36,112)   DRY( 36,113)   
    DRY( 36,114)   DRY( 36,115)   DRY( 36,116)   DRY( 36,117)   DRY( 36,118)   
    DRY( 36,119)   DRY( 36,120)   DRY( 36,121)   DRY( 36,122)   DRY( 36,123)   
    DRY( 36,124)   DRY( 36,125)   DRY( 36,126)   DRY( 36,127)   DRY( 36,128)   
    DRY( 36,129)   DRY( 36,130)   DRY( 36,131)   DRY( 36,132)   DRY( 36,133)   
    DRY( 36,134)   DRY( 36,135)   DRY( 36,136)   DRY( 36,137)   DRY( 36,138)   
    DRY( 36,139)   DRY( 36,140)   DRY( 36,141)   DRY( 36,142)   DRY( 36,143)   
    DRY( 36,144)   DRY( 36,145)   DRY( 36,146)   DRY( 36,147)   DRY( 36,148)   
    DRY( 36,149)   DRY( 36,150)   DRY( 36,151)   DRY( 36,152)   DRY( 36,153)   
    DRY( 36,154)   DRY( 36,155)   DRY( 36,156)   DRY( 36,157)   DRY( 36,158)   
    DRY( 36,159)   DRY( 36,160)   DRY( 36,161)   DRY( 36,162)   DRY( 36,163)   
    DRY( 36,164)   DRY( 36,165)   DRY( 36,166)   DRY( 36,167)   DRY( 36,168)   
    DRY( 36,169)   DRY( 36,170)   DRY( 36,171)   DRY( 36,172)   DRY( 36,173)   
    DRY( 36,174)   DRY( 36,175)   DRY( 36,176)   DRY( 36,177)   DRY( 36,178)   
    DRY( 36,179)   DRY( 36,180)   DRY( 36,181)   DRY( 36,182)   DRY( 36,183)   
    DRY( 36,184)   DRY( 36,185)   DRY( 36,186)   DRY( 36,187)   DRY( 36,188)   
    DRY( 36,189)   DRY( 36,190)   DRY( 36,191)   DRY( 36,192)   DRY( 36,193)   
    DRY( 36,194)   DRY( 36,195)   DRY( 36,196)   DRY( 36,197)   DRY( 36,198)   
    DRY( 36,199)   DRY( 36,200)   DRY( 36,201)   DRY( 36,202)   DRY( 36,203)   
    DRY( 36,204)   DRY( 36,205)   DRY( 36,206)   DRY( 36,207)   DRY( 36,208)   
    DRY( 36,209)   DRY( 36,210)   DRY( 36,211)   DRY( 36,212)   DRY( 36,213)   
    DRY( 36,214)   DRY( 36,215)   DRY( 36,216)   DRY( 36,217)   DRY( 36,218)   
    DRY( 36,219)   DRY( 36,220)   DRY( 37,  1)   DRY( 37,  2)   DRY( 37,  3)   
    DRY( 37,  4)   DRY( 37,  5)   DRY( 37,  6)   DRY( 37,  7)   DRY( 37,  8)   
    DRY( 37,  9)   DRY( 37, 10)   DRY( 37, 11)   DRY( 37, 12)   DRY( 37, 13)   
    DRY( 37, 14)   DRY( 37, 15)   DRY( 37, 16)   DRY( 37, 17)   DRY( 37, 18)   
    DRY( 37, 19)   DRY( 37, 20)   DRY( 37, 21)   DRY( 37, 22)   DRY( 37, 23)   
    DRY( 37, 24)   DRY( 37, 25)   DRY( 37, 26)   DRY( 37, 27)   DRY( 37, 28)   
    DRY( 37, 29)   DRY( 37, 30)   DRY( 37, 31)   DRY( 37, 32)   DRY( 37, 33)   
    DRY( 37, 34)   DRY( 37, 35)   DRY( 37, 36)   DRY( 37, 37)   DRY( 37, 38)   
    DRY( 37, 39)   DRY( 37, 40)   DRY( 37, 41)   DRY( 37, 42)   DRY( 37, 43)   
    DRY( 37, 44)   DRY( 37, 45)   DRY( 37, 46)   DRY( 37, 47)   DRY( 37, 48)   
    DRY( 37, 49)   DRY( 37, 50)   DRY( 37, 51)   DRY( 37, 52)   DRY( 37, 53)   
    DRY( 37, 54)   DRY( 37, 55)   DRY( 37, 56)   DRY( 37, 57)   DRY( 37, 58)   
    DRY( 37, 59)   DRY( 37, 60)   DRY( 37, 61)   DRY( 37, 62)   DRY( 37, 63)   
    DRY( 37, 64)   DRY( 37, 65)   DRY( 37, 66)   DRY( 37, 67)   DRY( 37, 68)   
    DRY( 37, 69)   DRY( 37, 70)   DRY( 37, 71)   DRY( 37, 72)   DRY( 37, 73)   
    DRY( 37, 74)   DRY( 37, 75)   DRY( 37, 76)   DRY( 37, 77)   DRY( 37, 78)   
    DRY( 37, 79)   DRY( 37, 80)   DRY( 37, 81)   DRY( 37, 82)   DRY( 37, 83)   
    DRY( 37, 84)   DRY( 37, 85)   DRY( 37, 86)   DRY( 37, 87)   DRY( 37, 88)   
    DRY( 37, 89)   DRY( 37, 90)   DRY( 37, 91)   DRY( 37, 92)   DRY( 37, 93)   
    DRY( 37, 94)   DRY( 37, 95)   DRY( 37, 96)   DRY( 37, 97)   DRY( 37, 98)   
    DRY( 37, 99)   DRY( 37,100)   DRY( 37,101)   DRY( 37,102)   DRY( 37,103)   
    DRY( 37,104)   DRY( 37,105)   DRY( 37,106)   DRY( 37,107)   DRY( 37,108)   
    DRY( 37,109)   DRY( 37,110)   DRY( 37,111)   DRY( 37,112)   DRY( 37,113)   
    DRY( 37,114)   DRY( 37,115)   DRY( 37,116)   DRY( 37,117)   DRY( 37,118)   
    DRY( 37,119)   DRY( 37,120)   DRY( 37,121)   DRY( 37,122)   DRY( 37,123)   
    DRY( 37,124)   DRY( 37,125)   DRY( 37,126)   DRY( 37,127)   DRY( 37,128)   
    DRY( 37,129)   DRY( 37,130)   DRY( 37,131)   DRY( 37,132)   DRY( 37,133)   
    DRY( 37,134)   DRY( 37,135)   DRY( 37,136)   DRY( 37,137)   DRY( 37,138)   
    DRY( 37,139)   DRY( 37,140)   DRY( 37,141)   DRY( 37,142)   DRY( 37,143)   
    DRY( 37,144)   DRY( 37,145)   DRY( 37,146)   DRY( 37,147)   DRY( 37,148)   
    DRY( 37,149)   DRY( 37,150)   DRY( 37,151)   DRY( 37,152)   DRY( 37,153)   
    DRY( 37,154)   DRY( 37,155)   DRY( 37,156)   DRY( 37,157)   DRY( 37,158)   
    DRY( 37,159)   DRY( 37,160)   DRY( 37,161)   DRY( 37,162)   DRY( 37,163)   
    DRY( 37,164)   DRY( 37,165)   DRY( 37,166)   DRY( 37,167)   DRY( 37,168)   
    DRY( 37,169)   DRY( 37,170)   DRY( 37,171)   DRY( 37,172)   DRY( 37,173)   
    DRY( 37,174)   DRY( 37,175)   DRY( 37,176)   DRY( 37,177)   DRY( 37,178)   
    DRY( 37,179)   DRY( 37,180)   DRY( 37,181)   DRY( 37,182)   DRY( 37,183)   
    DRY( 37,184)   DRY( 37,185)   DRY( 37,186)   DRY( 37,187)   DRY( 37,188)   
    DRY( 37,189)   DRY( 37,190)   DRY( 37,191)   DRY( 37,192)   DRY( 37,193)   
    DRY( 37,194)   DRY( 37,195)   DRY( 37,196)   DRY( 37,197)   DRY( 37,198)   
    DRY( 37,199)   DRY( 37,200)   DRY( 37,201)   DRY( 37,202)   DRY( 37,203)   
    DRY( 37,204)   DRY( 37,205)   DRY( 37,206)   DRY( 37,207)   DRY( 37,208)   
    DRY( 37,209)   DRY( 37,210)   DRY( 37,211)   DRY( 37,212)   DRY( 37,213)   
    DRY( 37,214)   DRY( 37,215)   DRY( 37,216)   DRY( 37,217)   DRY( 37,218)   
    DRY( 37,219)   DRY( 37,220)   DRY( 38,  1)   DRY( 38,  2)   DRY( 38,  3)   
    DRY( 38,  4)   DRY( 38,  5)   DRY( 38,  6)   DRY( 38,  7)   DRY( 38,  8)   
    DRY( 38,  9)   DRY( 38, 10)   DRY( 38, 11)   DRY( 38, 12)   DRY( 38, 13)   
    DRY( 38, 14)   DRY( 38, 15)   DRY( 38, 16)   DRY( 38, 17)   DRY( 38, 18)   
    DRY( 38, 19)   DRY( 38, 20)   DRY( 38, 21)   DRY( 38, 22)   DRY( 38, 23)   
    DRY( 38, 24)   DRY( 38, 25)   DRY( 38, 26)   DRY( 38, 27)   DRY( 38, 28)   
    DRY( 38, 29)   DRY( 38, 30)   DRY( 38, 31)   DRY( 38, 32)   DRY( 38, 33)   
    DRY( 38, 34)   DRY( 38, 35)   DRY( 38, 36)   DRY( 38, 37)   DRY( 38, 38)   
    DRY( 38, 39)   DRY( 38, 40)   DRY( 38, 41)   DRY( 38, 42)   DRY( 38, 43)   
    DRY( 38, 44)   DRY( 38, 45)   DRY( 38, 46)   DRY( 38, 47)   DRY( 38, 48)   
    DRY( 38, 49)   DRY( 38, 50)   DRY( 38, 51)   DRY( 38, 52)   DRY( 38, 53)   
    DRY( 38, 54)   DRY( 38, 55)   DRY( 38, 56)   DRY( 38, 57)   DRY( 38, 58)   
    DRY( 38, 59)   DRY( 38, 60)   DRY( 38, 61)   DRY( 38, 62)   DRY( 38, 63)   
    DRY( 38, 64)   DRY( 38, 65)   DRY( 38, 66)   DRY( 38, 67)   DRY( 38, 68)   
    DRY( 38, 69)   DRY( 38, 70)   DRY( 38, 71)   DRY( 38, 72)   DRY( 38, 73)   
    DRY( 38, 74)   DRY( 38, 75)   DRY( 38, 76)   DRY( 38, 77)   DRY( 38, 78)   
    DRY( 38, 79)   DRY( 38, 80)   DRY( 38, 81)   DRY( 38, 82)   DRY( 38, 83)   
    DRY( 38, 84)   DRY( 38, 85)   DRY( 38, 86)   DRY( 38, 87)   DRY( 38, 88)   
    DRY( 38, 89)   DRY( 38, 90)   DRY( 38, 91)   DRY( 38, 92)   DRY( 38, 93)   
    DRY( 38, 94)   DRY( 38, 95)   DRY( 38, 96)   DRY( 38, 97)   DRY( 38, 98)   
    DRY( 38, 99)   DRY( 38,100)   DRY( 38,101)   DRY( 38,102)   DRY( 38,103)   
    DRY( 38,104)   DRY( 38,105)   DRY( 38,106)   DRY( 38,107)   DRY( 38,108)   
    DRY( 38,109)   DRY( 38,110)   DRY( 38,111)   DRY( 38,112)   DRY( 38,113)   
    DRY( 38,114)   DRY( 38,115)   DRY( 38,116)   DRY( 38,117)   DRY( 38,118)   
    DRY( 38,119)   DRY( 38,120)   DRY( 38,121)   DRY( 38,122)   DRY( 38,123)   
    DRY( 38,124)   DRY( 38,125)   DRY( 38,126)   DRY( 38,127)   DRY( 38,128)   
    DRY( 38,129)   DRY( 38,130)   DRY( 38,131)   DRY( 38,132)   DRY( 38,133)   
    DRY( 38,134)   DRY( 38,135)   DRY( 38,136)   DRY( 38,137)   DRY( 38,138)   
    DRY( 38,139)   DRY( 38,140)   DRY( 38,141)   DRY( 38,142)   DRY( 38,143)   
    DRY( 38,144)   DRY( 38,145)   DRY( 38,146)   DRY( 38,147)   DRY( 38,148)   
    DRY( 38,149)   DRY( 38,150)   DRY( 38,151)   DRY( 38,152)   DRY( 38,153)   
    DRY( 38,154)   DRY( 38,155)   DRY( 38,156)   DRY( 38,157)   DRY( 38,158)   
    DRY( 38,159)   DRY( 38,160)   DRY( 38,161)   DRY( 38,162)   DRY( 38,163)   
    DRY( 38,164)   DRY( 38,165)   DRY( 38,166)   DRY( 38,167)   DRY( 38,168)   
    DRY( 38,169)   DRY( 38,170)   DRY( 38,171)   DRY( 38,172)   DRY( 38,173)   
    DRY( 38,174)   DRY( 38,175)   DRY( 38,176)   DRY( 38,177)   DRY( 38,178)   
    DRY( 38,179)   DRY( 38,180)   DRY( 38,181)   DRY( 38,182)   DRY( 38,183)   
    DRY( 38,184)   DRY( 38,185)   DRY( 38,186)   DRY( 38,187)   DRY( 38,188)   
    DRY( 38,189)   DRY( 38,190)   DRY( 38,191)   DRY( 38,192)   DRY( 38,193)   
    DRY( 38,194)   DRY( 38,195)   DRY( 38,196)   DRY( 38,197)   DRY( 38,198)   
    DRY( 38,199)   DRY( 38,200)   DRY( 38,201)   DRY( 38,202)   DRY( 38,203)   
    DRY( 38,204)   DRY( 38,205)   DRY( 38,206)   DRY( 38,207)   DRY( 38,208)   
    DRY( 38,209)   DRY( 38,210)   DRY( 38,211)   DRY( 38,212)   DRY( 38,213)   
    DRY( 38,214)   DRY( 38,215)   DRY( 38,216)   DRY( 38,217)   DRY( 38,218)   
    DRY( 38,219)   DRY( 38,220)   DRY( 39,  1)   DRY( 39,  2)   DRY( 39,  3)   
    DRY( 39,  4)   DRY( 39,  5)   DRY( 39,  6)   DRY( 39,  7)   DRY( 39,  8)   
    DRY( 39,  9)   DRY( 39, 10)   DRY( 39, 11)   DRY( 39, 12)   DRY( 39, 13)   
    DRY( 39, 14)   DRY( 39, 15)   DRY( 39, 16)   DRY( 39, 17)   DRY( 39, 18)   
    DRY( 39, 19)   DRY( 39, 20)   DRY( 39, 21)   DRY( 39, 22)   DRY( 39, 23)   
    DRY( 39, 24)   DRY( 39, 25)   DRY( 39, 26)   DRY( 39, 27)   DRY( 39, 28)   
    DRY( 39, 29)   DRY( 39, 30)   DRY( 39, 31)   DRY( 39, 32)   DRY( 39, 33)   
    DRY( 39, 34)   DRY( 39, 35)   DRY( 39, 36)   DRY( 39, 37)   DRY( 39, 38)   
    DRY( 39, 39)   DRY( 39, 40)   DRY( 39, 41)   DRY( 39, 42)   DRY( 39, 43)   
    DRY( 39, 44)   DRY( 39, 45)   DRY( 39, 46)   DRY( 39, 47)   DRY( 39, 48)   
    DRY( 39, 49)   DRY( 39, 50)   DRY( 39, 51)   DRY( 39, 52)   DRY( 39, 53)   
    DRY( 39, 54)   DRY( 39, 55)   DRY( 39, 56)   DRY( 39, 57)   DRY( 39, 58)   
    DRY( 39, 59)   DRY( 39, 60)   DRY( 39, 61)   DRY( 39, 62)   DRY( 39, 63)   
    DRY( 39, 64)   DRY( 39, 65)   DRY( 39, 66)   DRY( 39, 67)   DRY( 39, 68)   
    DRY( 39, 69)   DRY( 39, 70)   DRY( 39, 71)   DRY( 39, 72)   DRY( 39, 73)   
    DRY( 39, 74)   DRY( 39, 75)   DRY( 39, 76)   DRY( 39, 77)   DRY( 39, 78)   
    DRY( 39, 79)   DRY( 39, 80)   DRY( 39, 81)   DRY( 39, 82)   DRY( 39, 83)   
    DRY( 39, 84)   DRY( 39, 85)   DRY( 39, 86)   DRY( 39, 87)   DRY( 39, 88)   
    DRY( 39, 89)   DRY( 39, 90)   DRY( 39, 91)   DRY( 39, 92)   DRY( 39, 93)   
    DRY( 39, 94)   DRY( 39, 95)   DRY( 39, 96)   DRY( 39, 97)   DRY( 39, 98)   
    DRY( 39, 99)   DRY( 39,100)   DRY( 39,101)   DRY( 39,102)   DRY( 39,103)   
    DRY( 39,104)   DRY( 39,105)   DRY( 39,106)   DRY( 39,107)   DRY( 39,108)   
    DRY( 39,109)   DRY( 39,110)   DRY( 39,111)   DRY( 39,112)   DRY( 39,113)   
    DRY( 39,114)   DRY( 39,115)   DRY( 39,116)   DRY( 39,117)   DRY( 39,118)   
    DRY( 39,119)   DRY( 39,120)   DRY( 39,121)   DRY( 39,122)   DRY( 39,123)   
    DRY( 39,124)   DRY( 39,125)   DRY( 39,126)   DRY( 39,127)   DRY( 39,128)   
    DRY( 39,129)   DRY( 39,130)   DRY( 39,131)   DRY( 39,132)   DRY( 39,133)   
    DRY( 39,134)   DRY( 39,135)   DRY( 39,136)   DRY( 39,137)   DRY( 39,138)   
    DRY( 39,139)   DRY( 39,140)   DRY( 39,141)   DRY( 39,142)   DRY( 39,143)   
    DRY( 39,144)   DRY( 39,145)   DRY( 39,146)   DRY( 39,147)   DRY( 39,148)   
    DRY( 39,149)   DRY( 39,150)   DRY( 39,151)   DRY( 39,152)   DRY( 39,153)   
    DRY( 39,154)   DRY( 39,155)   DRY( 39,156)   DRY( 39,157)   DRY( 39,158)   
    DRY( 39,159)   DRY( 39,160)   DRY( 39,161)   DRY( 39,162)   DRY( 39,163)   
    DRY( 39,164)   DRY( 39,165)   DRY( 39,166)   DRY( 39,167)   DRY( 39,168)   
    DRY( 39,169)   DRY( 39,170)   DRY( 39,171)   DRY( 39,172)   DRY( 39,173)   
    DRY( 39,174)   DRY( 39,175)   DRY( 39,176)   DRY( 39,177)   DRY( 39,178)   
    DRY( 39,179)   DRY( 39,180)   DRY( 39,181)   DRY( 39,182)   DRY( 39,183)   
    DRY( 39,184)   DRY( 39,185)   DRY( 39,186)   DRY( 39,187)   DRY( 39,188)   
    DRY( 39,189)   DRY( 39,190)   DRY( 39,191)   DRY( 39,192)   DRY( 39,193)   
    DRY( 39,194)   DRY( 39,195)   DRY( 39,196)   DRY( 39,197)   DRY( 39,198)   
    DRY( 39,199)   DRY( 39,200)   DRY( 39,201)   DRY( 39,202)   DRY( 39,203)   
    DRY( 39,204)   DRY( 39,205)   DRY( 39,206)   DRY( 39,207)   DRY( 39,208)   
    DRY( 39,209)   DRY( 39,210)   DRY( 39,211)   DRY( 39,212)   DRY( 39,213)   
    DRY( 39,214)   DRY( 39,215)   DRY( 39,216)   DRY( 39,217)   DRY( 39,218)   
    DRY( 39,219)   DRY( 39,220)   DRY( 40,  1)   DRY( 40,  2)   DRY( 40,  3)   
    DRY( 40,  4)   DRY( 40,  5)   DRY( 40,  6)   DRY( 40,  7)   DRY( 40,  8)   
    DRY( 40,  9)   DRY( 40, 10)   DRY( 40, 11)   DRY( 40, 12)   DRY( 40, 13)   
    DRY( 40, 14)   DRY( 40, 15)   DRY( 40, 16)   DRY( 40, 17)   DRY( 40, 18)   
    DRY( 40, 19)   DRY( 40, 20)   DRY( 40, 21)   DRY( 40, 22)   DRY( 40, 23)   
    DRY( 40, 24)   DRY( 40, 25)   DRY( 40, 26)   DRY( 40, 27)   DRY( 40, 28)   
    DRY( 40, 29)   DRY( 40, 30)   DRY( 40, 31)   DRY( 40, 32)   DRY( 40, 33)   
    DRY( 40, 34)   DRY( 40, 35)   DRY( 40, 36)   DRY( 40, 37)   DRY( 40, 38)   
    DRY( 40, 39)   DRY( 40, 40)   DRY( 40, 41)   DRY( 40, 42)   DRY( 40, 43)   
    DRY( 40, 44)   DRY( 40, 45)   DRY( 40, 46)   DRY( 40, 47)   DRY( 40, 48)   
    DRY( 40, 49)   DRY( 40, 50)   DRY( 40, 51)   DRY( 40, 52)   DRY( 40, 53)   
    DRY( 40, 54)   DRY( 40, 55)   DRY( 40, 56)   DRY( 40, 57)   DRY( 40, 58)   
    DRY( 40, 59)   DRY( 40, 60)   DRY( 40, 61)   DRY( 40, 62)   DRY( 40, 63)   
    DRY( 40, 64)   DRY( 40, 65)   DRY( 40, 66)   DRY( 40, 67)   DRY( 40, 68)   
    DRY( 40, 69)   DRY( 40, 70)   DRY( 40, 71)   DRY( 40, 72)   DRY( 40, 73)   
    DRY( 40, 74)   DRY( 40, 75)   DRY( 40, 76)   DRY( 40, 77)   DRY( 40, 78)   
    DRY( 40, 79)   DRY( 40, 80)   DRY( 40, 81)   DRY( 40, 82)   DRY( 40, 83)   
    DRY( 40, 84)   DRY( 40, 85)   DRY( 40, 86)   DRY( 40, 87)   DRY( 40, 88)   
    DRY( 40, 89)   DRY( 40, 90)   DRY( 40, 91)   DRY( 40, 92)   DRY( 40, 93)   
    DRY( 40, 94)   DRY( 40, 95)   DRY( 40, 96)   DRY( 40, 97)   DRY( 40, 98)   
    DRY( 40, 99)   DRY( 40,100)   DRY( 40,101)   DRY( 40,102)   DRY( 40,103)   
    DRY( 40,104)   DRY( 40,105)   DRY( 40,106)   DRY( 40,107)   DRY( 40,108)   
    DRY( 40,109)   DRY( 40,110)   DRY( 40,111)   DRY( 40,112)   DRY( 40,113)   
    DRY( 40,114)   DRY( 40,115)   DRY( 40,116)   DRY( 40,117)   DRY( 40,118)   
    DRY( 40,119)   DRY( 40,120)   DRY( 40,121)   DRY( 40,122)   DRY( 40,123)   
    DRY( 40,124)   DRY( 40,125)   DRY( 40,126)   DRY( 40,127)   DRY( 40,128)   
    DRY( 40,129)   DRY( 40,130)   DRY( 40,131)   DRY( 40,132)   DRY( 40,133)   
    DRY( 40,134)   DRY( 40,135)   DRY( 40,136)   DRY( 40,137)   DRY( 40,138)   
    DRY( 40,139)   DRY( 40,140)   DRY( 40,141)   DRY( 40,142)   DRY( 40,143)   
    DRY( 40,144)   DRY( 40,145)   DRY( 40,146)   DRY( 40,147)   DRY( 40,148)   
    DRY( 40,149)   DRY( 40,150)   DRY( 40,151)   DRY( 40,152)   DRY( 40,153)   
    DRY( 40,154)   DRY( 40,155)   DRY( 40,156)   DRY( 40,157)   DRY( 40,158)   
    DRY( 40,159)   DRY( 40,160)   DRY( 40,161)   DRY( 40,162)   DRY( 40,163)   
    DRY( 40,164)   DRY( 40,165)   DRY( 40,166)   DRY( 40,167)   DRY( 40,168)   
    DRY( 40,169)   DRY( 40,170)   DRY( 40,171)   DRY( 40,172)   DRY( 40,173)   
    DRY( 40,174)   DRY( 40,175)   DRY( 40,176)   DRY( 40,177)   DRY( 40,178)   
    DRY( 40,179)   DRY( 40,180)   DRY( 40,181)   DRY( 40,182)   DRY( 40,183)   
    DRY( 40,184)   DRY( 40,185)   DRY( 40,186)   DRY( 40,187)   DRY( 40,188)   
    DRY( 40,189)   DRY( 40,190)   DRY( 40,191)   DRY( 40,192)   DRY( 40,193)   
    DRY( 40,194)   DRY( 40,195)   DRY( 40,196)   DRY( 40,197)   DRY( 40,198)   
    DRY( 40,199)   DRY( 40,200)   DRY( 40,201)   DRY( 40,202)   DRY( 40,203)   
    DRY( 40,204)   DRY( 40,205)   DRY( 40,206)   DRY( 40,207)   DRY( 40,208)   
    DRY( 40,209)   DRY( 40,210)   DRY( 40,211)   DRY( 40,212)   DRY( 40,213)   
    DRY( 40,214)   DRY( 40,215)   DRY( 40,216)   DRY( 40,217)   DRY( 40,218)   
    DRY( 40,219)   DRY( 40,220)   

 CELL CONVERSIONS FOR ITER.=  2  LAYER= 11  STEP=  1  PERIOD=   1   (ROW,COL)
    DRY( 23,  1)   DRY( 23,  2)   DRY( 23,  3)   DRY( 24,  1)   DRY( 24,  2)   
    DRY( 24,  3)   DRY( 24,  4)   DRY( 24,  5)   DRY( 25,  1)   DRY( 25,  2)   
    DRY( 25,  3)   DRY( 25,  4)   DRY( 25,  5)   DRY( 25,  6)   DRY( 25,  7)   
    DRY( 25,  8)   DRY( 25,  9)   DRY( 25, 10)   DRY( 25, 11)   DRY( 25, 12)   
    DRY( 25, 13)   DRY( 25, 19)   DRY( 25, 20)   DRY( 25, 21)   DRY( 25, 22)   
    DRY( 25, 23)   DRY( 25, 24)   DRY( 26,  1)   DRY( 26,  2)   DRY( 26,  3)   
    DRY( 26,  4)   DRY( 26,  5)   DRY( 26,  6)   DRY( 26,  7)   DRY( 26,  8)   
    DRY( 26,  9)   DRY( 26, 10)   DRY( 26, 11)   DRY( 26, 12)   DRY( 26, 13)   
    DRY( 26, 14)   DRY( 26, 15)   DRY( 26, 16)   DRY( 26, 17)   DRY( 26, 18)   
    DRY( 26, 19)   DRY( 26, 20)   DRY( 26, 21)   DRY( 26, 22)   DRY( 26, 23)   
    DRY( 26, 24)   DRY( 26, 25)   DRY( 26, 26)   DRY( 26, 27)   DRY( 26, 28)   
    DRY( 26, 29)   DRY( 26, 30)   DRY( 26, 31)   DRY( 26, 32)   DRY( 26, 33)   
    DRY( 26, 34)   DRY( 26, 35)   DRY( 26, 36)   DRY( 26, 37)   DRY( 26, 38)   
    DRY( 26, 39)   DRY( 26, 40)   DRY( 27,  1)   DRY( 27,  2)   DRY( 27,  3)   
    DRY( 27,  4)   DRY( 27,  5)   DRY( 27,  6)   DRY( 27,  7)   DRY( 27,  8)   
    DRY( 27,  9)   DRY( 27, 10)   DRY( 27, 11)   DRY( 27, 12)   DRY( 27, 13)   
    DRY( 27, 14)   DRY( 27, 15)   DRY( 27, 16)   DRY( 27, 17)   DRY( 27, 18)   
    DRY( 27, 19)   DRY( 27, 20)   DRY( 27, 21)   DRY( 27, 22)   DRY( 27, 23)   
    DRY( 27, 24)   DRY( 27, 25)   DRY( 27, 26)   DRY( 27, 27)   DRY( 27, 28)   
    DRY( 27, 29)   DRY( 27, 30)   DRY( 27, 31)   DRY( 27, 32)   DRY( 27, 33)   
    DRY( 27, 34)   DRY( 27, 35)   DRY( 27, 36)   DRY( 27, 37)   DRY( 27, 38)   
    DRY( 27, 39)   DRY( 27, 40)   DRY( 27, 41)   DRY( 27, 42)   DRY( 27, 43)   
    DRY( 27, 44)   DRY( 27, 45)   DRY( 27, 46)   DRY( 27, 47)   DRY( 27, 48)   
    DRY( 27, 49)   DRY( 27, 50)   DRY( 27, 61)   DRY( 27, 62)   DRY( 27, 63)   
    DRY( 27, 64)   DRY( 27, 65)   DRY( 27, 66)   DRY( 27, 67)   DRY( 27, 68)   
    DRY( 27, 69)   DRY( 27, 70)   DRY( 27, 71)   DRY( 27, 72)   DRY( 27, 73)   
    DRY( 27, 74)   DRY( 27, 75)   DRY( 27, 76)   DRY( 27, 77)   DRY( 27, 78)   
    DRY( 27, 79)   DRY( 27, 80)   DRY( 27, 81)   DRY( 27, 82)   DRY( 27, 83)   
    DRY( 27, 84)   DRY( 27, 85)   DRY( 27, 86)   DRY( 28,  1)   DRY( 28,  2)   
    DRY( 28,  3)   DRY( 28,  4)   DRY( 28,  5)   DRY( 28,  6)   DRY( 28,  7)   
    DRY( 28,  8)   DRY( 28,  9)   DRY( 28, 10)   DRY( 28, 11)   DRY( 28, 12)   
    DRY( 28, 13)   DRY( 28, 14)   DRY( 28, 15)   DRY( 28, 16)   DRY( 28, 17)   
    DRY( 28, 18)   DRY( 28, 19)   DRY( 28, 20)   DRY( 28, 21)   DRY( 28, 22)   
    DRY( 28, 23)   DRY( 28, 24)   DRY( 28, 25)   DRY( 28, 26)   DRY( 28, 27)   
    DRY( 28, 28)   DRY( 28, 29)   DRY( 28, 30)   DRY( 28, 31)   DRY( 28, 32)   
    DRY( 28, 33)   DRY( 28, 34)   DRY( 28, 35)   DRY( 28, 36)   DRY( 28, 37)   
    DRY( 28, 38)   DRY( 28, 39)   DRY( 28, 40)   DRY( 28, 41)   DRY( 28, 42)   
    DRY( 28, 43)   DRY( 28, 44)   DRY( 28, 45)   DRY( 28, 46)   DRY( 28, 47)   
    DRY( 28, 48)   DRY( 28, 49)   DRY( 28, 50)   DRY( 28, 51)   DRY( 28, 52)   
    DRY( 28, 53)   DRY( 28, 54)   DRY( 28, 55)   DRY( 28, 56)   DRY( 28, 57)   
    DRY( 28, 58)   DRY( 28, 59)   DRY( 28, 60)   DRY( 28, 61)   DRY( 28, 62)   
    DRY( 28, 63)   DRY( 28, 64)   DRY( 28, 65)   DRY( 28, 66)   DRY( 28, 67)   
    DRY( 28, 68)   DRY( 28, 69)   DRY( 28, 70)   DRY( 28, 71)   DRY( 28, 72)   
    DRY( 28, 73)   DRY( 28, 74)   DRY( 28, 75)   DRY( 28, 76)   DRY( 28, 77)   
    DRY( 28, 78)   DRY( 28, 79)   DRY( 28, 80)   DRY( 28, 81)   DRY( 28, 82)   
    DRY( 28, 83)   DRY( 28, 84)   DRY( 28, 85)   DRY( 28, 86)   DRY( 28, 87)   
    DRY( 28, 88)   DRY( 28, 89)   DRY( 28, 90)   DRY( 28, 91)   DRY( 28, 92)   
    DRY( 28, 93)   DRY( 28, 94)   DRY( 28, 95)   DRY( 28, 96)   DRY( 28, 97)   
    DRY( 28, 98)   DRY( 28, 99)   DRY( 28,100)   DRY( 28,101)   DRY( 28,102)   
    DRY( 28,103)   DRY( 28,104)   DRY( 28,105)   DRY( 28,106)   DRY( 28,107)   
    DRY( 28,108)   DRY( 28,109)   DRY( 28,110)   DRY( 28,111)   DRY( 29,  1)   
    DRY( 29,  2)   DRY( 29,  3)   DRY( 29,  4)   DRY( 29,  5)   DRY( 29,  6)   
    DRY( 29,  7)   DRY( 29,  8)   DRY( 29,  9)   DRY( 29, 10)   DRY( 29, 11)   
    DRY( 29, 12)   DRY( 29, 13)   DRY( 29, 14)   DRY( 29, 15)   DRY( 29, 16)   
    DRY( 29, 17)   DRY( 29, 18)   DRY( 29, 19)   DRY( 29, 20)   DRY( 29, 21)   
    DRY( 29, 22)   DRY( 29, 23)   DRY( 29, 24)   DRY( 29, 25)   DRY( 29, 26)   
    DRY( 29, 27)   DRY( 29, 28)   DRY( 29, 29)   DRY( 29, 30)   DRY( 29, 31)   
    DRY( 29, 32)   DRY( 29, 33)   DRY( 29, 34)   DRY( 29, 35)   DRY( 29, 36)   
    DRY( 29, 37)   DRY( 29, 38)   DRY( 29, 39)   DRY( 29, 40)   DRY( 29, 41)   
    DRY( 29, 42)   DRY( 29, 43)   DRY( 29, 44)   DRY( 29, 45)   DRY( 29, 46)   
    DRY( 29, 47)   DRY( 29, 48)   DRY( 29, 49)   DRY( 29, 50)   DRY( 29, 51)   
    DRY( 29, 52)   DRY( 29, 53)   DRY( 29, 54)   DRY( 29, 55)   DRY( 29, 56)   
    DRY( 29, 57)   DRY( 29, 58)   DRY( 29, 59)   DRY( 29, 60)   DRY( 29, 61)   
    DRY( 29, 62)   DRY( 29, 63)   DRY( 29, 64)   DRY( 29, 65)   DRY( 29, 66)   
    DRY( 29, 67)   DRY( 29, 68)   DRY( 29, 69)   DRY( 29, 70)   DRY( 29, 71)   
    DRY( 29, 72)   DRY( 29, 73)   DRY( 29, 74)   DRY( 29, 75)   DRY( 29, 76)   
    DRY( 29, 77)   DRY( 29, 78)   DRY( 29, 79)   DRY( 29, 80)   DRY( 29, 81)   
    DRY( 29, 82)   DRY( 29, 83)   DRY( 29, 84)   DRY( 29, 85)   DRY( 29, 86)   
    DRY( 29, 87)   DRY( 29, 88)   DRY( 29, 89)   DRY( 29, 90)   DRY( 29, 91)   
    DRY( 29, 92)   DRY( 29, 93)   DRY( 29, 94)   DRY( 29, 95)   DRY( 29, 96)   
    DRY( 29, 97)   DRY( 29, 98)   DRY( 29, 99)   DRY( 29,100)   DRY( 29,101)   
    DRY( 29,102)   DRY( 29,103)   DRY( 29,104)   DRY( 29,105)   DRY( 29,106)   
    DRY( 29,107)   DRY( 29,108)   DRY( 29,109)   DRY( 29,110)   DRY( 29,111)   
    DRY( 29,112)   DRY( 29,113)   DRY( 29,114)   DRY( 29,115)   DRY( 29,116)   
    DRY( 29,117)   DRY( 29,118)   DRY( 29,119)   DRY( 29,120)   DRY( 29,121)   
    DRY( 29,122)   DRY( 29,123)   DRY( 29,124)   DRY( 29,125)   DRY( 29,126)   
    DRY( 29,127)   DRY( 29,128)   DRY( 29,129)   DRY( 29,130)   DRY( 29,131)   
    DRY( 29,132)   DRY( 29,133)   DRY( 29,134)   DRY( 29,135)   DRY( 29,136)   
    DRY( 29,137)   DRY( 29,138)   DRY( 29,139)   DRY( 29,140)   DRY( 29,141)   
    DRY( 29,142)   DRY( 29,147)   DRY( 29,148)   DRY( 29,149)   DRY( 29,150)   
    DRY( 29,151)   DRY( 29,152)   DRY( 29,153)   DRY( 29,154)   DRY( 29,155)   
    DRY( 29,156)   DRY( 29,157)   DRY( 29,158)   DRY( 29,159)   DRY( 29,160)   
    DRY( 29,161)   DRY( 29,162)   DRY( 29,163)   DRY( 29,164)   DRY( 29,165)   
    DRY( 29,167)   DRY( 29,168)   DRY( 29,169)   DRY( 29,170)   DRY( 29,171)   
    DRY( 29,172)   DRY( 29,173)   DRY( 29,174)   DRY( 29,175)   DRY( 29,176)   
    DRY( 29,177)   DRY( 29,178)   DRY( 29,179)   DRY( 29,180)   DRY( 29,181)   
    DRY( 29,187)   DRY( 29,188)   DRY( 29,189)   DRY( 29,190)   DRY( 29,191)   
    DRY( 29,192)   DRY( 29,193)   DRY( 29,194)   DRY( 29,195)   DRY( 29,196)   
    DRY( 29,197)   DRY( 29,198)   DRY( 29,199)   DRY( 29,200)   DRY( 29,201)   
    DRY( 29,202)   DRY( 29,203)   DRY( 29,204)   DRY( 29,205)   DRY( 29,206)   
    DRY( 29,207)   DRY( 29,208)   DRY( 29,209)   DRY( 29,210)   DRY( 29,211)   
    DRY( 29,212)   DRY( 30,  1)   DRY( 30,  2)   DRY( 30,  3)   DRY( 30,  4)   
    DRY( 30,  5)   DRY( 30,  6)   DRY( 30,  7)   DRY( 30,  8)   DRY( 30,  9)   
    DRY( 30, 10)   DRY( 30, 11)   DRY( 30, 12)   DRY( 30, 13)   DRY( 30, 14)   
    DRY( 30, 15)   DRY( 30, 16)   DRY( 30, 17)   DRY( 30, 18)   DRY( 30, 19)   
    DRY( 30, 20)   DRY( 30, 21)   DRY( 30, 22)   DRY( 30, 23)   DRY( 30, 24)   
    DRY( 30, 25)   DRY( 30, 26)   DRY( 30, 27)   DRY( 30, 28)   DRY( 30, 29)   
    DRY( 30, 30)   DRY( 30, 31)   DRY( 30, 32)   DRY( 30, 33)   DRY( 30, 34)   
    DRY( 30, 35)   DRY( 30, 36)   DRY( 30, 37)   DRY( 30, 38)   DRY( 30, 39)   
    DRY( 30, 40)   DRY( 30, 41)   DRY( 30, 42)   DRY( 30, 43)   DRY( 30, 44)   
    DRY( 30, 45)   DRY( 30, 46)   DRY( 30, 47)   DRY( 30, 48)   DRY( 30, 49)   
    DRY( 30, 50)   DRY( 30, 51)   DRY( 30, 52)   DRY( 30, 53)   DRY( 30, 54)   
    DRY( 30, 55)   DRY( 30, 56)   DRY( 30, 57)   DRY( 30, 58)   DRY( 30, 59)   
    DRY( 30, 60)   DRY( 30, 61)   DRY( 30, 62)   DRY( 30, 63)   DRY( 30, 64)   
    DRY( 30, 65)   DRY( 30, 66)   DRY( 30, 67)   DRY( 30, 68)   DRY( 30, 69)   
    DRY( 30, 70)   DRY( 30, 71)   DRY( 30, 72)   DRY( 30, 73)   DRY( 30, 74)   
    DRY( 30, 75)   DRY( 30, 76)   DRY( 30, 77)   DRY( 30, 78)   DRY( 30, 79)   
    DRY( 30, 80)   DRY( 30, 81)   DRY( 30, 82)   DRY( 30, 83)   DRY( 30, 84)   
    DRY( 30, 85)   DRY( 30, 86)   DRY( 30, 87)   DRY( 30, 88)   DRY( 30, 89)   
    DRY( 30, 90)   DRY( 30, 91)   DRY( 30, 92)   DRY( 30, 93)   DRY( 30, 94)   
    DRY( 30, 95)   DRY( 30, 96)   DRY( 30, 97)   DRY( 30, 98)   DRY( 30, 99)   
    DRY( 30,100)   DRY( 30,101)   DRY( 30,102)   DRY( 30,103)   DRY( 30,104)   
    DRY( 30,105)   DRY( 30,106)   DRY( 30,107)   DRY( 30,108)   DRY( 30,109)   
    DRY( 30,110)   DRY( 30,111)   DRY( 30,112)   DRY( 30,113)   DRY( 30,114)   
    DRY( 30,115)   DRY( 30,116)   DRY( 30,117)   DRY( 30,118)   DRY( 30,119)   
    DRY( 30,120)   DRY( 30,121)   DRY( 30,122)   DRY( 30,123)   DRY( 30,124)   
    DRY( 30,125)   DRY( 30,126)   DRY( 30,127)   DRY( 30,128)   DRY( 30,129)   
    DRY( 30,130)   DRY( 30,131)   DRY( 30,132)   DRY( 30,133)   DRY( 30,134)   
    DRY( 30,135)   DRY( 30,136)   DRY( 30,137)   DRY( 30,138)   DRY( 30,139)   
    DRY( 30,140)   DRY( 30,141)   DRY( 30,142)   DRY( 30,143)   DRY( 30,144)   
    DRY( 30,145)   DRY( 30,146)   DRY( 30,147)   DRY( 30,148)   DRY( 30,149)   
    DRY( 30,150)   DRY( 30,151)   DRY( 30,152)   DRY( 30,153)   DRY( 30,154)   
    DRY( 30,155)   DRY( 30,156)   DRY( 30,157)   DRY( 30,158)   DRY( 30,159)   
    DRY( 30,160)   DRY( 30,161)   DRY( 30,162)   DRY( 30,163)   DRY( 30,164)   
    DRY( 30,165)   DRY( 30,166)   DRY( 30,167)   DRY( 30,168)   DRY( 30,169)   
    DRY( 30,170)   DRY( 30,171)   DRY( 30,172)   DRY( 30,173)   DRY( 30,174)   
    DRY( 30,175)   DRY( 30,176)   DRY( 30,177)   DRY( 30,178)   DRY( 30,179)   
    DRY( 30,180)   DRY( 30,181)   DRY( 30,182)   DRY( 30,183)   DRY( 30,184)   
    DRY( 30,185)   DRY( 30,186)   DRY( 30,187)   DRY( 30,188)   DRY( 30,189)   
    DRY( 30,190)   DRY( 30,191)   DRY( 30,192)   DRY( 30,193)   DRY( 30,194)   
    DRY( 30,195)   DRY( 30,196)   DRY( 30,197)   DRY( 30,198)   DRY( 30,199)   
    DRY( 30,200)   DRY( 30,201)   DRY( 30,202)   DRY( 30,203)   DRY( 30,204)   
    DRY( 30,205)   DRY( 30,206)   DRY( 30,207)   DRY( 30,208)   DRY( 30,209)   
    DRY( 30,210)   DRY( 30,211)   DRY( 30,212)   DRY( 30,213)   DRY( 30,214)   
    DRY( 30,215)   DRY( 31,  1)   DRY( 31,  2)   DRY( 31,  3)   DRY( 31,  4)   
    DRY( 31,  5)   DRY( 31,  6)   DRY( 31,  7)   DRY( 31,  8)   DRY( 31,  9)   
    DRY( 31, 10)   DRY( 31, 11)   DRY( 31, 12)   DRY( 31, 13)   DRY( 31, 14)   
    DRY( 31, 15)   DRY( 31, 16)   DRY( 31, 17)   DRY( 31, 18)   DRY( 31, 19)   
    DRY( 31, 20)   DRY( 31, 21)   DRY( 31, 22)   DRY( 31, 23)   DRY( 31, 24)   
    DRY( 31, 25)   DRY( 31, 26)   DRY( 31, 27)   DRY( 31, 28)   DRY( 31, 29)   
    DRY( 31, 30)   DRY( 31, 31)   DRY( 31, 32)   DRY( 31, 33)   DRY( 31, 34)   
    DRY( 31, 35)   DRY( 31, 36)   DRY( 31, 37)   DRY( 31, 38)   DRY( 31, 39)   
    DRY( 31, 40)   DRY( 31, 41)   DRY( 31, 42)   DRY( 31, 43)   DRY( 31, 44)   
    DRY( 31, 45)   DRY( 31, 46)   DRY( 31, 47)   DRY( 31, 48)   DRY( 31, 49)   
    DRY( 31, 50)   DRY( 31, 51)   DRY( 31, 52)   DRY( 31, 53)   DRY( 31, 54)   
    DRY( 31, 55)   DRY( 31, 56)   DRY( 31, 57)   DRY( 31, 58)   DRY( 31, 59)   
    DRY( 31, 60)   DRY( 31, 61)   DRY( 31, 62)   DRY( 31, 63)   DRY( 31, 64)   
    DRY( 31, 65)   DRY( 31, 66)   DRY( 31, 67)   DRY( 31, 68)   DRY( 31, 69)   
    DRY( 31, 70)   DRY( 31, 71)   DRY( 31, 72)   DRY( 31, 73)   DRY( 31, 74)   
    DRY( 31, 75)   DRY( 31, 76)   DRY( 31, 77)   DRY( 31, 78)   DRY( 31, 79)   
    DRY( 31, 80)   DRY( 31, 81)   DRY( 31, 82)   DRY( 31, 83)   DRY( 31, 84)   
    DRY( 31, 85)   DRY( 31, 86)   DRY( 31, 87)   DRY( 31, 88)   DRY( 31, 89)   
    DRY( 31, 90)   DRY( 31, 91)   DRY( 31, 92)   DRY( 31, 93)   DRY( 31, 94)   
    DRY( 31, 95)   DRY( 31, 96)   DRY( 31, 97)   DRY( 31, 98)   DRY( 31, 99)   
    DRY( 31,100)   DRY( 31,101)   DRY( 31,102)   DRY( 31,103)   DRY( 31,104)   
    DRY( 31,105)   DRY( 31,106)   DRY( 31,107)   DRY( 31,108)   DRY( 31,109)   
    DRY( 31,110)   DRY( 31,111)   DRY( 31,112)   DRY( 31,113)   DRY( 31,114)   
    DRY( 31,115)   DRY( 31,116)   DRY( 31,117)   DRY( 31,118)   DRY( 31,119)   
    DRY( 31,120)   DRY( 31,121)   DRY( 31,122)   DRY( 31,123)   DRY( 31,124)   
    DRY( 31,125)   DRY( 31,126)   DRY( 31,127)   DRY( 31,128)   DRY( 31,129)   
    DRY( 31,130)   DRY( 31,131)   DRY( 31,132)   DRY( 31,133)   DRY( 31,134)   
    DRY( 31,135)   DRY( 31,136)   DRY( 31,137)   DRY( 31,138)   DRY( 31,139)   
    DRY( 31,140)   DRY( 31,141)   DRY( 31,142)   DRY( 31,143)   DRY( 31,144)   
    DRY( 31,145)   DRY( 31,146)   DRY( 31,147)   DRY( 31,148)   DRY( 31,149)   
    DRY( 31,150)   DRY( 31,151)   DRY( 31,152)   DRY( 31,153)   DRY( 31,154)   
    DRY( 31,155)   DRY( 31,156)   DRY( 31,157)   DRY( 31,158)   DRY( 31,159)   
    DRY( 31,160)   DRY( 31,161)   DRY( 31,162)   DRY( 31,163)   DRY( 31,164)   
    DRY( 31,165)   DRY( 31,166)   DRY( 31,167)   DRY( 31,168)   DRY( 31,169)   
    DRY( 31,170)   DRY( 31,171)   DRY( 31,172)   DRY( 31,173)   DRY( 31,174)   
    DRY( 31,175)   DRY( 31,176)   DRY( 31,177)   DRY( 31,178)   DRY( 31,179)   
    DRY( 31,180)   DRY( 31,181)   DRY( 31,182)   DRY( 31,183)   DRY( 31,184)   
    DRY( 31,185)   DRY( 31,186)   DRY( 31,187)   DRY( 31,188)   DRY( 31,189)   
    DRY( 31,190)   DRY( 31,191)   DRY( 31,192)   DRY( 31,193)   DRY( 31,194)   
    DRY( 31,195)   DRY( 31,196)   DRY( 31,197)   DRY( 31,198)   DRY( 31,199)   
    DRY( 31,200)   DRY( 31,201)   DRY( 31,202)   DRY( 31,203)   DRY( 31,204)   
    DRY( 31,205)   DRY( 31,206)   DRY( 31,207)   DRY( 31,208)   DRY( 31,209)   
    DRY( 31,210)   DRY( 31,211)   DRY( 31,212)   DRY( 31,213)   DRY( 31,214)   
    DRY( 31,215)   DRY( 31,216)   DRY( 31,217)   DRY( 32,  1)   DRY( 32,  2)   
    DRY( 32,  3)   DRY( 32,  4)   DRY( 32,  5)   DRY( 32,  6)   DRY( 32,  7)   
    DRY( 32,  8)   DRY( 32,  9)   DRY( 32, 10)   DRY( 32, 11)   DRY( 32, 12)   
    DRY( 32, 13)   DRY( 32, 14)   DRY( 32, 15)   DRY( 32, 16)   DRY( 32, 17)   
    DRY( 32, 18)   DRY( 32, 19)   DRY( 32, 20)   DRY( 32, 21)   DRY( 32, 22)   
    DRY( 32, 23)   DRY( 32, 24)   DRY( 32, 25)   DRY( 32, 26)   DRY( 32, 27)   
    DRY( 32, 28)   DRY( 32, 29)   DRY( 32, 30)   DRY( 32, 31)   DRY( 32, 32)   
    DRY( 32, 33)   DRY( 32, 34)   DRY( 32, 35)   DRY( 32, 36)   DRY( 32, 37)   
    DRY( 32, 38)   DRY( 32, 39)   DRY( 32, 40)   DRY( 32, 41)   DRY( 32, 42)   
    DRY( 32, 43)   DRY( 32, 44)   DRY( 32, 45)   DRY( 32, 46)   DRY( 32, 47)   
    DRY( 32, 48)   DRY( 32, 49)   DRY( 32, 50)   DRY( 32, 51)   DRY( 32, 52)   
    DRY( 32, 53)   DRY( 32, 54)   DRY( 32, 55)   DRY( 32, 56)   DRY( 32, 57)   
    DRY( 32, 58)   DRY( 32, 59)   DRY( 32, 60)   DRY( 32, 61)   DRY( 32, 62)   
    DRY( 32, 63)   DRY( 32, 64)   DRY( 32, 65)   DRY( 32, 66)   DRY( 32, 67)   
    DRY( 32, 68)   DRY( 32, 69)   DRY( 32, 70)   DRY( 32, 71)   DRY( 32, 72)   
    DRY( 32, 73)   DRY( 32, 74)   DRY( 32, 75)   DRY( 32, 76)   DRY( 32, 77)   
    DRY( 32, 78)   DRY( 32, 79)   DRY( 32, 80)   DRY( 32, 81)   DRY( 32, 82)   
    DRY( 32, 83)   DRY( 32, 84)   DRY( 32, 85)   DRY( 32, 86)   DRY( 32, 87)   
    DRY( 32, 88)   DRY( 32, 89)   DRY( 32, 90)   DRY( 32, 91)   DRY( 32, 92)   
    DRY( 32, 93)   DRY( 32, 94)   DRY( 32, 95)   DRY( 32, 96)   DRY( 32, 97)   
    DRY( 32, 98)   DRY( 32, 99)   DRY( 32,100)   DRY( 32,101)   DRY( 32,102)   
    DRY( 32,103)   DRY( 32,104)   DRY( 32,105)   DRY( 32,106)   DRY( 32,107)   
    DRY( 32,108)   DRY( 32,109)   DRY( 32,110)   DRY( 32,111)   DRY( 32,112)   
    DRY( 32,113)   DRY( 32,114)   DRY( 32,115)   DRY( 32,116)   DRY( 32,117)   
    DRY( 32,118)   DRY( 32,119)   DRY( 32,120)   DRY( 32,121)   DRY( 32,122)   
    DRY( 32,123)   DRY( 32,124)   DRY( 32,125)   DRY( 32,126)   DRY( 32,127)   
    DRY( 32,128)   DRY( 32,129)   DRY( 32,130)   DRY( 32,131)   DRY( 32,132)   
    DRY( 32,133)   DRY( 32,134)   DRY( 32,135)   DRY( 32,136)   DRY( 32,137)   
    DRY( 32,138)   DRY( 32,139)   DRY( 32,140)   DRY( 32,141)   DRY( 32,142)   
    DRY( 32,143)   DRY( 32,144)   DRY( 32,145)   DRY( 32,146)   DRY( 32,147)   
    DRY( 32,148)   DRY( 32,149)   DRY( 32,150)   DRY( 32,151)   DRY( 32,152)   
    DRY( 32,153)   DRY( 32,154)   DRY( 32,155)   DRY( 32,156)   DRY( 32,157)   
    DRY( 32,158)   DRY( 32,159)   DRY( 32,160)   DRY( 32,161)   DRY( 32,162)   
    DRY( 32,163)   DRY( 32,164)   DRY( 32,165)   DRY( 32,166)   DRY( 32,167)   
    DRY( 32,168)   DRY( 32,169)   DRY( 32,170)   DRY( 32,171)   DRY( 32,172)   
    DRY( 32,173)   DRY( 32,174)   DRY( 32,175)   DRY( 32,176)   DRY( 32,177)   
    DRY( 32,178)   DRY( 32,179)   DRY( 32,180)   DRY( 32,181)   DRY( 32,182)   
    DRY( 32,183)   DRY( 32,184)   DRY( 32,185)   DRY( 32,186)   DRY( 32,187)   
    DRY( 32,188)   DRY( 32,189)   DRY( 32,190)   DRY( 32,191)   DRY( 32,192)   
    DRY( 32,193)   DRY( 32,194)   DRY( 32,195)   DRY( 32,196)   DRY( 32,197)   
    DRY( 32,198)   DRY( 32,199)   DRY( 32,200)   DRY( 32,201)   DRY( 32,202)   
    DRY( 32,203)   DRY( 32,204)   DRY( 32,205)   DRY( 32,206)   DRY( 32,207)   
    DRY( 32,208)   DRY( 32,209)   DRY( 32,210)   DRY( 32,211)   DRY( 32,212)   
    DRY( 32,213)   DRY( 32,214)   DRY( 32,215)   DRY( 32,216)   DRY( 32,217)   
    DRY( 32,218)   DRY( 32,219)   DRY( 32,220)   DRY( 33,  1)   DRY( 33,  2)   
    DRY( 33,  3)   DRY( 33,  4)   DRY( 33,  5)   DRY( 33,  6)   DRY( 33,  7)   
    DRY( 33,  8)   DRY( 33,  9)   DRY( 33, 10)   DRY( 33, 11)   DRY( 33, 12)   
    DRY( 33, 13)   DRY( 33, 14)   DRY( 33, 15)   DRY( 33, 16)   DRY( 33, 17)   
    DRY( 33, 18)   DRY( 33, 19)   DRY( 33, 20)   DRY( 33, 21)   DRY( 33, 22)   
    DRY( 33, 23)   DRY( 33, 24)   DRY( 33, 25)   DRY( 33, 26)   DRY( 33, 27)   
    DRY( 33, 28)   DRY( 33, 29)   DRY( 33, 30)   DRY( 33, 31)   DRY( 33, 32)   
    DRY( 33, 33)   DRY( 33, 34)   DRY( 33, 35)   DRY( 33, 36)   DRY( 33, 37)   
    DRY( 33, 38)   DRY( 33, 39)   DRY( 33, 40)   DRY( 33, 41)   DRY( 33, 42)   
    DRY( 33, 43)   DRY( 33, 44)   DRY( 33, 45)   DRY( 33, 46)   DRY( 33, 47)   
    DRY( 33, 48)   DRY( 33, 49)   DRY( 33, 50)   DRY( 33, 51)   DRY( 33, 52)   
    DRY( 33, 53)   DRY( 33, 54)   DRY( 33, 55)   DRY( 33, 56)   DRY( 33, 57)   
    DRY( 33, 58)   DRY( 33, 59)   DRY( 33, 60)   DRY( 33, 61)   DRY( 33, 62)   
    DRY( 33, 63)   DRY( 33, 64)   DRY( 33, 65)   DRY( 33, 66)   DRY( 33, 67)   
    DRY( 33, 68)   DRY( 33, 69)   DRY( 33, 70)   DRY( 33, 71)   DRY( 33, 72)   
    DRY( 33, 73)   DRY( 33, 74)   DRY( 33, 75)   DRY( 33, 76)   DRY( 33, 77)   
    DRY( 33, 78)   DRY( 33, 79)   DRY( 33, 80)   DRY( 33, 81)   DRY( 33, 82)   
    DRY( 33, 83)   DRY( 33, 84)   DRY( 33, 85)   DRY( 33, 86)   DRY( 33, 87)   
    DRY( 33, 88)   DRY( 33, 89)   DRY( 33, 90)   DRY( 33, 91)   DRY( 33, 92)   
    DRY( 33, 93)   DRY( 33, 94)   DRY( 33, 95)   DRY( 33, 96)   DRY( 33, 97)   
    DRY( 33, 98)   DRY( 33, 99)   DRY( 33,100)   DRY( 33,101)   DRY( 33,102)   
    DRY( 33,103)   DRY( 33,104)   DRY( 33,105)   DRY( 33,106)   DRY( 33,107)   
    DRY( 33,108)   DRY( 33,109)   DRY( 33,110)   DRY( 33,111)   DRY( 33,112)   
    DRY( 33,113)   DRY( 33,114)   DRY( 33,115)   DRY( 33,116)   DRY( 33,117)   
    DRY( 33,118)   DRY( 33,119)   DRY( 33,120)   DRY( 33,121)   DRY( 33,122)   
    DRY( 33,123)   DRY( 33,124)   DRY( 33,125)   DRY( 33,126)   DRY( 33,127)   
    DRY( 33,128)   DRY( 33,129)   DRY( 33,130)   DRY( 33,131)   DRY( 33,132)   
    DRY( 33,133)   DRY( 33,134)   DRY( 33,135)   DRY( 33,136)   DRY( 33,137)   
    DRY( 33,138)   DRY( 33,139)   DRY( 33,140)   DRY( 33,141)   DRY( 33,142)   
    DRY( 33,143)   DRY( 33,144)   DRY( 33,145)   DRY( 33,146)   DRY( 33,147)   
    DRY( 33,148)   DRY( 33,149)   DRY( 33,150)   DRY( 33,151)   DRY( 33,152)   
    DRY( 33,153)   DRY( 33,154)   DRY( 33,155)   DRY( 33,156)   DRY( 33,157)   
    DRY( 33,158)   DRY( 33,159)   DRY( 33,160)   DRY( 33,161)   DRY( 33,162)   
    DRY( 33,163)   DRY( 33,164)   DRY( 33,165)   DRY( 33,166)   DRY( 33,167)   
    DRY( 33,168)   DRY( 33,169)   DRY( 33,170)   DRY( 33,171)   DRY( 33,172)   
    DRY( 33,173)   DRY( 33,174)   DRY( 33,175)   DRY( 33,176)   DRY( 33,177)   
    DRY( 33,178)   DRY( 33,179)   DRY( 33,180)   DRY( 33,181)   DRY( 33,182)   
    DRY( 33,183)   DRY( 33,184)   DRY( 33,185)   DRY( 33,186)   DRY( 33,187)   
    DRY( 33,188)   DRY( 33,189)   DRY( 33,190)   DRY( 33,191)   DRY( 33,192)   
    DRY( 33,193)   DRY( 33,194)   DRY( 33,195)   DRY( 33,196)   DRY( 33,197)   
    DRY( 33,198)   DRY( 33,199)   DRY( 33,200)   DRY( 33,201)   DRY( 33,202)   
    DRY( 33,203)   DRY( 33,204)   DRY( 33,205)   DRY( 33,206)   DRY( 33,207)   
    DRY( 33,208)   DRY( 33,209)   DRY( 33,210)   DRY( 33,211)   DRY( 33,212)   
    DRY( 33,213)   DRY( 33,214)   DRY( 33,215)   DRY( 33,216)   DRY( 33,217)   
    DRY( 33,218)   DRY( 33,219)   DRY( 33,220)   DRY( 34,  1)   DRY( 34,  2)   
    DRY( 34,  3)   DRY( 34,  4)   DRY( 34,  5)   DRY( 34,  6)   DRY( 34,  7)   
    DRY( 34,  8)   DRY( 34,  9)   DRY( 34, 10)   DRY( 34, 11)   DRY( 34, 12)   
    DRY( 34, 13)   DRY( 34, 14)   DRY( 34, 15)   DRY( 34, 16)   DRY( 34, 17)   
    DRY( 34, 18)   DRY( 34, 19)   DRY( 34, 20)   DRY( 34, 21)   DRY( 34, 22)   
    DRY( 34, 23)   DRY( 34, 24)   DRY( 34, 25)   DRY( 34, 26)   DRY( 34, 27)   
    DRY( 34, 28)   DRY( 34, 29)   DRY( 34, 30)   DRY( 34, 31)   DRY( 34, 32)   
    DRY( 34, 33)   DRY( 34, 34)   DRY( 34, 35)   DRY( 34, 36)   DRY( 34, 37)   
    DRY( 34, 38)   DRY( 34, 39)   DRY( 34, 40)   DRY( 34, 41)   DRY( 34, 42)   
    DRY( 34, 43)   DRY( 34, 44)   DRY( 34, 45)   DRY( 34, 46)   DRY( 34, 47)   
    DRY( 34, 48)   DRY( 34, 49)   DRY( 34, 50)   DRY( 34, 51)   DRY( 34, 52)   
    DRY( 34, 53)   DRY( 34, 54)   DRY( 34, 55)   DRY( 34, 56)   DRY( 34, 57)   
    DRY( 34, 58)   DRY( 34, 59)   DRY( 34, 60)   DRY( 34, 61)   DRY( 34, 62)   
    DRY( 34, 63)   DRY( 34, 64)   DRY( 34, 65)   DRY( 34, 66)   DRY( 34, 67)   
    DRY( 34, 68)   DRY( 34, 69)   DRY( 34, 70)   DRY( 34, 71)   DRY( 34, 72)   
    DRY( 34, 73)   DRY( 34, 74)   DRY( 34, 75)   DRY( 34, 76)   DRY( 34, 77)   
    DRY( 34, 78)   DRY( 34, 79)   DRY( 34, 80)   DRY( 34, 81)   DRY( 34, 82)   
    DRY( 34, 83)   DRY( 34, 84)   DRY( 34, 85)   DRY( 34, 86)   DRY( 34, 87)   
    DRY( 34, 88)   DRY( 34, 89)   DRY( 34, 90)   DRY( 34, 91)   DRY( 34, 92)   
    DRY( 34, 93)   DRY( 34, 94)   DRY( 34, 95)   DRY( 34, 96)   DRY( 34, 97)   
    DRY( 34, 98)   DRY( 34, 99)   DRY( 34,100)   DRY( 34,101)   DRY( 34,102)   
    DRY( 34,103)   DRY( 34,104)   DRY( 34,105)   DRY( 34,106)   DRY( 34,107)   
    DRY( 34,108)   DRY( 34,109)   DRY( 34,110)   DRY( 34,111)   DRY( 34,112)   
    DRY( 34,113)   DRY( 34,114)   DRY( 34,115)   DRY( 34,116)   DRY( 34,117)   
    DRY( 34,118)   DRY( 34,119)   DRY( 34,120)   DRY( 34,121)   DRY( 34,122)   
    DRY( 34,123)   DRY( 34,124)   DRY( 34,125)   DRY( 34,126)   DRY( 34,127)   
    DRY( 34,128)   DRY( 34,129)   DRY( 34,130)   DRY( 34,131)   DRY( 34,132)   
    DRY( 34,133)   DRY( 34,134)   DRY( 34,135)   DRY( 34,136)   DRY( 34,137)   
    DRY( 34,138)   DRY( 34,139)   DRY( 34,140)   DRY( 34,141)   DRY( 34,142)   
    DRY( 34,143)   DRY( 34,144)   DRY( 34,145)   DRY( 34,146)   DRY( 34,147)   
    DRY( 34,148)   DRY( 34,149)   DRY( 34,150)   DRY( 34,151)   DRY( 34,152)   
    DRY( 34,153)   DRY( 34,154)   DRY( 34,155)   DRY( 34,156)   DRY( 34,157)   
    DRY( 34,158)   DRY( 34,159)   DRY( 34,160)   DRY( 34,161)   DRY( 34,162)   
    DRY( 34,163)   DRY( 34,164)   DRY( 34,165)   DRY( 34,166)   DRY( 34,167)   
    DRY( 34,168)   DRY( 34,169)   DRY( 34,170)   DRY( 34,171)   DRY( 34,172)   
    DRY( 34,173)   DRY( 34,174)   DRY( 34,175)   DRY( 34,176)   DRY( 34,177)   
    DRY( 34,178)   DRY( 34,179)   DRY( 34,180)   DRY( 34,181)   DRY( 34,182)   
    DRY( 34,183)   DRY( 34,184)   DRY( 34,185)   DRY( 34,186)   DRY( 34,187)   
    DRY( 34,188)   DRY( 34,189)   DRY( 34,190)   DRY( 34,191)   DRY( 34,192)   
    DRY( 34,193)   DRY( 34,194)   DRY( 34,195)   DRY( 34,196)   DRY( 34,197)   
    DRY( 34,198)   DRY( 34,199)   DRY( 34,200)   DRY( 34,201)   DRY( 34,202)   
    DRY( 34,203)   DRY( 34,204)   DRY( 34,205)   DRY( 34,206)   DRY( 34,207)   
    DRY( 34,208)   DRY( 34,209)   DRY( 34,210)   DRY( 34,211)   DRY( 34,212)   
    DRY( 34,213)   DRY( 34,214)   DRY( 34,215)   DRY( 34,216)   DRY( 34,217)   
    DRY( 34,218)   DRY( 34,219)   DRY( 34,220)   DRY( 35,  1)   DRY( 35,  2)   
    DRY( 35,  3)   DRY( 35,  4)   DRY( 35,  5)   DRY( 35,  6)   DRY( 35,  7)   
    DRY( 35,  8)   DRY( 35,  9)   DRY( 35, 10)   DRY( 35, 11)   DRY( 35, 12)   
    DRY( 35, 13)   DRY( 35, 14)   DRY( 35, 15)   DRY( 35, 16)   DRY( 35, 17)   
    DRY( 35, 18)   DRY( 35, 19)   DRY( 35, 20)   DRY( 35, 21)   DRY( 35, 22)   
    DRY( 35, 23)   DRY( 35, 24)   DRY( 35, 25)   DRY( 35, 26)   DRY( 35, 27)   
    DRY( 35, 28)   DRY( 35, 29)   DRY( 35, 30)   DRY( 35, 31)   DRY( 35, 32)   
    DRY( 35, 33)   DRY( 35, 34)   DRY( 35, 35)   DRY( 35, 36)   DRY( 35, 37)   
    DRY( 35, 38)   DRY( 35, 39)   DRY( 35, 40)   DRY( 35, 41)   DRY( 35, 42)   
    DRY( 35, 43)   DRY( 35, 44)   DRY( 35, 45)   DRY( 35, 46)   DRY( 35, 47)   
    DRY( 35, 48)   DRY( 35, 49)   DRY( 35, 50)   DRY( 35, 51)   DRY( 35, 52)   
    DRY( 35, 53)   DRY( 35, 54)   DRY( 35, 55)   DRY( 35, 56)   DRY( 35, 57)   
    DRY( 35, 58)   DRY( 35, 59)   DRY( 35, 60)   DRY( 35, 61)   DRY( 35, 62)   
    DRY( 35, 63)   DRY( 35, 64)   DRY( 35, 65)   DRY( 35, 66)   DRY( 35, 67)   
    DRY( 35, 68)   DRY( 35, 69)   DRY( 35, 70)   DRY( 35, 71)   DRY( 35, 72)   
    DRY( 35, 73)   DRY( 35, 74)   DRY( 35, 75)   DRY( 35, 76)   DRY( 35, 77)   
    DRY( 35, 78)   DRY( 35, 79)   DRY( 35, 80)   DRY( 35, 81)   DRY( 35, 82)   
    DRY( 35, 83)   DRY( 35, 84)   DRY( 35, 85)   DRY( 35, 86)   DRY( 35, 87)   
    DRY( 35, 88)   DRY( 35, 89)   DRY( 35, 90)   DRY( 35, 91)   DRY( 35, 92)   
    DRY( 35, 93)   DRY( 35, 94)   DRY( 35, 95)   DRY( 35, 96)   DRY( 35, 97)   
    DRY( 35, 98)   DRY( 35, 99)   DRY( 35,100)   DRY( 35,101)   DRY( 35,102)   
    DRY( 35,103)   DRY( 35,104)   DRY( 35,105)   DRY( 35,106)   DRY( 35,107)   
    DRY( 35,108)   DRY( 35,109)   DRY( 35,110)   DRY( 35,111)   DRY( 35,112)   
    DRY( 35,113)   DRY( 35,114)   DRY( 35,115)   DRY( 35,116)   DRY( 35,117)   
    DRY( 35,118)   DRY( 35,119)   DRY( 35,120)   DRY( 35,121)   DRY( 35,122)   
    DRY( 35,123)   DRY( 35,124)   DRY( 35,125)   DRY( 35,126)   DRY( 35,127)   
    DRY( 35,128)   DRY( 35,129)   DRY( 35,130)   DRY( 35,131)   DRY( 35,132)   
    DRY( 35,133)   DRY( 35,134)   DRY( 35,135)   DRY( 35,136)   DRY( 35,137)   
    DRY( 35,138)   DRY( 35,139)   DRY( 35,140)   DRY( 35,141)   DRY( 35,142)   
    DRY( 35,143)   DRY( 35,144)   DRY( 35,145)   DRY( 35,146)   DRY( 35,147)   
    DRY( 35,148)   DRY( 35,149)   DRY( 35,150)   DRY( 35,151)   DRY( 35,152)   
    DRY( 35,153)   DRY( 35,154)   DRY( 35,155)   DRY( 35,156)   DRY( 35,157)   
    DRY( 35,158)   DRY( 35,159)   DRY( 35,160)   DRY( 35,161)   DRY( 35,162)   
    DRY( 35,163)   DRY( 35,164)   DRY( 35,165)   DRY( 35,166)   DRY( 35,167)   
    DRY( 35,168)   DRY( 35,169)   DRY( 35,170)   DRY( 35,171)   DRY( 35,172)   
    DRY( 35,173)   DRY( 35,174)   DRY( 35,175)   DRY( 35,176)   DRY( 35,177)   
    DRY( 35,178)   DRY( 35,179)   DRY( 35,180)   DRY( 35,181)   DRY( 35,182)   
    DRY( 35,183)   DRY( 35,184)   DRY( 35,185)   DRY( 35,186)   DRY( 35,187)   
    DRY( 35,188)   DRY( 35,189)   DRY( 35,190)   DRY( 35,191)   DRY( 35,192)   
    DRY( 35,193)   DRY( 35,194)   DRY( 35,195)   DRY( 35,196)   DRY( 35,197)   
    DRY( 35,198)   DRY( 35,199)   DRY( 35,200)   DRY( 35,201)   DRY( 35,202)   
    DRY( 35,203)   DRY( 35,204)   DRY( 35,205)   DRY( 35,206)   DRY( 35,207)   
    DRY( 35,208)   DRY( 35,209)   DRY( 35,210)   DRY( 35,211)   DRY( 35,212)   
    DRY( 35,213)   DRY( 35,214)   DRY( 35,215)   DRY( 35,216)   DRY( 35,217)   
    DRY( 35,218)   DRY( 35,219)   DRY( 35,220)   DRY( 36,  1)   DRY( 36,  2)   
    DRY( 36,  3)   DRY( 36,  4)   DRY( 36,  5)   DRY( 36,  6)   DRY( 36,  7)   
    DRY( 36,  8)   DRY( 36,  9)   DRY( 36, 10)   DRY( 36, 11)   DRY( 36, 12)   
    DRY( 36, 13)   DRY( 36, 14)   DRY( 36, 15)   DRY( 36, 16)   DRY( 36, 17)   
    DRY( 36, 18)   DRY( 36, 19)   DRY( 36, 20)   DRY( 36, 21)   DRY( 36, 22)   
    DRY( 36, 23)   DRY( 36, 24)   DRY( 36, 25)   DRY( 36, 26)   DRY( 36, 27)   
    DRY( 36, 28)   DRY( 36, 29)   DRY( 36, 30)   DRY( 36, 31)   DRY( 36, 32)   
    DRY( 36, 33)   DRY( 36, 34)   DRY( 36, 35)   DRY( 36, 36)   DRY( 36, 37)   
    DRY( 36, 38)   DRY( 36, 39)   DRY( 36, 40)   DRY( 36, 41)   DRY( 36, 42)   
    DRY( 36, 43)   DRY( 36, 44)   DRY( 36, 45)   DRY( 36, 46)   DRY( 36, 47)   
    DRY( 36, 48)   DRY( 36, 49)   DRY( 36, 50)   DRY( 36, 51)   DRY( 36, 52)   
    DRY( 36, 53)   DRY( 36, 54)   DRY( 36, 55)   DRY( 36, 56)   DRY( 36, 57)   
    DRY( 36, 58)   DRY( 36, 59)   DRY( 36, 60)   DRY( 36, 61)   DRY( 36, 62)   
    DRY( 36, 63)   DRY( 36, 64)   DRY( 36, 65)   DRY( 36, 66)   DRY( 36, 67)   
    DRY( 36, 68)   DRY( 36, 69)   DRY( 36, 70)   DRY( 36, 71)   DRY( 36, 72)   
    DRY( 36, 73)   DRY( 36, 74)   DRY( 36, 75)   DRY( 36, 76)   DRY( 36, 77)   
    DRY( 36, 78)   DRY( 36, 79)   DRY( 36, 80)   DRY( 36, 81)   DRY( 36, 82)   
    DRY( 36, 83)   DRY( 36, 84)   DRY( 36, 85)   DRY( 36, 86)   DRY( 36, 87)   
    DRY( 36, 88)   DRY( 36, 89)   DRY( 36, 90)   DRY( 36, 91)   DRY( 36, 92)   
    DRY( 36, 93)   DRY( 36, 94)   DRY( 36, 95)   DRY( 36, 96)   DRY( 36, 97)   
    DRY( 36, 98)   DRY( 36, 99)   DRY( 36,100)   DRY( 36,101)   DRY( 36,102)   
    DRY( 36,103)   DRY( 36,104)   DRY( 36,105)   DRY( 36,106)   DRY( 36,107)   
    DRY( 36,108)   DRY( 36,109)   DRY( 36,110)   DRY( 36,111)   DRY( 36,112)   
    DRY( 36,113)   DRY( 36,114)   DRY( 36,115)   DRY( 36,116)   DRY( 36,117)   
    DRY( 36,118)   DRY( 36,119)   DRY( 36,120)   DRY( 36,121)   DRY( 36,122)   
    DRY( 36,123)   DRY( 36,124)   DRY( 36,125)   DRY( 36,126)   DRY( 36,127)   
    DRY( 36,128)   DRY( 36,129)   DRY( 36,130)   DRY( 36,131)   DRY( 36,132)   
    DRY( 36,133)   DRY( 36,134)   DRY( 36,135)   DRY( 36,136)   DRY( 36,137)   
    DRY( 36,138)   DRY( 36,139)   DRY( 36,140)   DRY( 36,141)   DRY( 36,142)   
    DRY( 36,143)   DRY( 36,144)   DRY( 36,145)   DRY( 36,146)   DRY( 36,147)   
    DRY( 36,148)   DRY( 36,149)   DRY( 36,150)   DRY( 36,151)   DRY( 36,152)   
    DRY( 36,153)   DRY( 36,154)   DRY( 36,155)   DRY( 36,156)   DRY( 36,157)   
    DRY( 36,158)   DRY( 36,159)   DRY( 36,160)   DRY( 36,161)   DRY( 36,162)   
    DRY( 36,163)   DRY( 36,164)   DRY( 36,165)   DRY( 36,166)   DRY( 36,167)   
    DRY( 36,168)   DRY( 36,169)   DRY( 36,170)   DRY( 36,171)   DRY( 36,172)   
    DRY( 36,173)   DRY( 36,174)   DRY( 36,175)   DRY( 36,176)   DRY( 36,177)   
    DRY( 36,178)   DRY( 36,179)   DRY( 36,180)   DRY( 36,181)   DRY( 36,182)   
    DRY( 36,183)   DRY( 36,184)   DRY( 36,185)   DRY( 36,186)   DRY( 36,187)   
    DRY( 36,188)   DRY( 36,189)   DRY( 36,190)   DRY( 36,191)   DRY( 36,192)   
    DRY( 36,193)   DRY( 36,194)   DRY( 36,195)   DRY( 36,196)   DRY( 36,197)   
    DRY( 36,198)   DRY( 36,199)   DRY( 36,200)   DRY( 36,201)   DRY( 36,202)   
    DRY( 36,203)   DRY( 36,204)   DRY( 36,205)   DRY( 36,206)   DRY( 36,207)   
    DRY( 36,208)   DRY( 36,209)   DRY( 36,210)   DRY( 36,211)   DRY( 36,212)   
    DRY( 36,213)   DRY( 36,214)   DRY( 36,215)   DRY( 36,216)   DRY( 36,217)   
    DRY( 36,218)   DRY( 36,219)   DRY( 36,220)   DRY( 37,  1)   DRY( 37,  2)   
    DRY( 37,  3)   DRY( 37,  4)   DRY( 37,  5)   DRY( 37,  6)   DRY( 37,  7)   
    DRY( 37,  8)   DRY( 37,  9)   DRY( 37, 10)   DRY( 37, 11)   DRY( 37, 12)   
    DRY( 37, 13)   DRY( 37, 14)   DRY( 37, 15)   DRY( 37, 16)   DRY( 37, 17)   
    DRY( 37, 18)   DRY( 37, 19)   DRY( 37, 20)   DRY( 37, 21)   DRY( 37, 22)   
    DRY( 37, 23)   DRY( 37, 24)   DRY( 37, 25)   DRY( 37, 26)   DRY( 37, 27)   
    DRY( 37, 28)   DRY( 37, 29)   DRY( 37, 30)   DRY( 37, 31)   DRY( 37, 32)   
    DRY( 37, 33)   DRY( 37, 34)   DRY( 37, 35)   DRY( 37, 36)   DRY( 37, 37)   
    DRY( 37, 38)   DRY( 37, 39)   DRY( 37, 40)   DRY( 37, 41)   DRY( 37, 42)   
    DRY( 37, 43)   DRY( 37, 44)   DRY( 37, 45)   DRY( 37, 46)   DRY( 37, 47)   
    DRY( 37, 48)   DRY( 37, 49)   DRY( 37, 50)   DRY( 37, 51)   DRY( 37, 52)   
    DRY( 37, 53)   DRY( 37, 54)   DRY( 37, 55)   DRY( 37, 56)   DRY( 37, 57)   
    DRY( 37, 58)   DRY( 37, 59)   DRY( 37, 60)   DRY( 37, 61)   DRY( 37, 62)   
    DRY( 37, 63)   DRY( 37, 64)   DRY( 37, 65)   DRY( 37, 66)   DRY( 37, 67)   
    DRY( 37, 68)   DRY( 37, 69)   DRY( 37, 70)   DRY( 37, 71)   DRY( 37, 72)   
    DRY( 37, 73)   DRY( 37, 74)   DRY( 37, 75)   DRY( 37, 76)   DRY( 37, 77)   
    DRY( 37, 78)   DRY( 37, 79)   DRY( 37, 80)   DRY( 37, 81)   DRY( 37, 82)   
    DRY( 37, 83)   DRY( 37, 84)   DRY( 37, 85)   DRY( 37, 86)   DRY( 37, 87)   
    DRY( 37, 88)   DRY( 37, 89)   DRY( 37, 90)   DRY( 37, 91)   DRY( 37, 92)   
    DRY( 37, 93)   DRY( 37, 94)   DRY( 37, 95)   DRY( 37, 96)   DRY( 37, 97)   
    DRY( 37, 98)   DRY( 37, 99)   DRY( 37,100)   DRY( 37,101)   DRY( 37,102)   
    DRY( 37,103)   DRY( 37,104)   DRY( 37,105)   DRY( 37,106)   DRY( 37,107)   
    DRY( 37,108)   DRY( 37,109)   DRY( 37,110)   DRY( 37,111)   DRY( 37,112)   
    DRY( 37,113)   DRY( 37,114)   DRY( 37,115)   DRY( 37,116)   DRY( 37,117)   
    DRY( 37,118)   DRY( 37,119)   DRY( 37,120)   DRY( 37,121)   DRY( 37,122)   
    DRY( 37,123)   DRY( 37,124)   DRY( 37,125)   DRY( 37,126)   DRY( 37,127)   
    DRY( 37,128)   DRY( 37,129)   DRY( 37,130)   DRY( 37,131)   DRY( 37,132)   
    DRY( 37,133)   DRY( 37,134)   DRY( 37,135)   DRY( 37,136)   DRY( 37,137)   
    DRY( 37,138)   DRY( 37,139)   DRY( 37,140)   DRY( 37,141)   DRY( 37,142)   
    DRY( 37,143)   DRY( 37,144)   DRY( 37,145)   DRY( 37,146)   DRY( 37,147)   
    DRY( 37,148)   DRY( 37,149)   DRY( 37,150)   DRY( 37,151)   DRY( 37,152)   
    DRY( 37,153)   DRY( 37,154)   DRY( 37,155)   DRY( 37,156)   DRY( 37,157)   
    DRY( 37,158)   DRY( 37,159)   DRY( 37,160)   DRY( 37,161)   DRY( 37,162)   
    DRY( 37,163)   DRY( 37,164)   DRY( 37,165)   DRY( 37,166)   DRY( 37,167)   
    DRY( 37,168)   DRY( 37,169)   DRY( 37,170)   DRY( 37,171)   DRY( 37,172)   
    DRY( 37,173)   DRY( 37,174)   DRY( 37,175)   DRY( 37,176)   DRY( 37,177)   
    DRY( 37,178)   DRY( 37,179)   DRY( 37,180)   DRY( 37,181)   DRY( 37,182)   
    DRY( 37,183)   DRY( 37,184)   DRY( 37,185)   DRY( 37,186)   DRY( 37,187)   
    DRY( 37,188)   DRY( 37,189)   DRY( 37,190)   DRY( 37,191)   DRY( 37,192)   
    DRY( 37,193)   DRY( 37,194)   DRY( 37,195)   DRY( 37,196)   DRY( 37,197)   
    DRY( 37,198)   DRY( 37,199)   DRY( 37,200)   DRY( 37,201)   DRY( 37,202)   
    DRY( 37,203)   DRY( 37,204)   DRY( 37,205)   DRY( 37,206)   DRY( 37,207)   
    DRY( 37,208)   DRY( 37,209)   DRY( 37,210)   DRY( 37,211)   DRY( 37,212)   
    DRY( 37,213)   DRY( 37,214)   DRY( 37,215)   DRY( 37,216)   DRY( 37,217)   
    DRY( 37,218)   DRY( 37,219)   DRY( 37,220)   DRY( 38,  1)   DRY( 38,  2)   
    DRY( 38,  3)   DRY( 38,  4)   DRY( 38,  5)   DRY( 38,  6)   DRY( 38,  7)   
    DRY( 38,  8)   DRY( 38,  9)   DRY( 38, 10)   DRY( 38, 11)   DRY( 38, 12)   
    DRY( 38, 13)   DRY( 38, 14)   DRY( 38, 15)   DRY( 38, 16)   DRY( 38, 17)   
    DRY( 38, 18)   DRY( 38, 19)   DRY( 38, 20)   DRY( 38, 21)   DRY( 38, 22)   
    DRY( 38, 23)   DRY( 38, 24)   DRY( 38, 25)   DRY( 38, 26)   DRY( 38, 27)   
    DRY( 38, 28)   DRY( 38, 29)   DRY( 38, 30)   DRY( 38, 31)   DRY( 38, 32)   
    DRY( 38, 33)   DRY( 38, 34)   DRY( 38, 35)   DRY( 38, 36)   DRY( 38, 37)   
    DRY( 38, 38)   DRY( 38, 39)   DRY( 38, 40)   DRY( 38, 41)   DRY( 38, 42)   
    DRY( 38, 43)   DRY( 38, 44)   DRY( 38, 45)   DRY( 38, 46)   DRY( 38, 47)   
    DRY( 38, 48)   DRY( 38, 49)   DRY( 38, 50)   DRY( 38, 51)   DRY( 38, 52)   
    DRY( 38, 53)   DRY( 38, 54)   DRY( 38, 55)   DRY( 38, 56)   DRY( 38, 57)   
    DRY( 38, 58)   DRY( 38, 59)   DRY( 38, 60)   DRY( 38, 61)   DRY( 38, 62)   
    DRY( 38, 63)   DRY( 38, 64)   DRY( 38, 65)   DRY( 38, 66)   DRY( 38, 67)   
    DRY( 38, 68)   DRY( 38, 69)   DRY( 38, 70)   DRY( 38, 71)   DRY( 38, 72)   
    DRY( 38, 73)   DRY( 38, 74)   DRY( 38, 75)   DRY( 38, 76)   DRY( 38, 77)   
    DRY( 38, 78)   DRY( 38, 79)   DRY( 38, 80)   DRY( 38, 81)   DRY( 38, 82)   
    DRY( 38, 83)   DRY( 38, 84)   DRY( 38, 85)   DRY( 38, 86)   DRY( 38, 87)   
    DRY( 38, 88)   DRY( 38, 89)   DRY( 38, 90)   DRY( 38, 91)   DRY( 38, 92)   
    DRY( 38, 93)   DRY( 38, 94)   DRY( 38, 95)   DRY( 38, 96)   DRY( 38, 97)   
    DRY( 38, 98)   DRY( 38, 99)   DRY( 38,100)   DRY( 38,101)   DRY( 38,102)   
    DRY( 38,103)   DRY( 38,104)   DRY( 38,105)   DRY( 38,106)   DRY( 38,107)   
    DRY( 38,108)   DRY( 38,109)   DRY( 38,110)   DRY( 38,111)   DRY( 38,112)   
    DRY( 38,113)   DRY( 38,114)   DRY( 38,115)   DRY( 38,116)   DRY( 38,117)   
    DRY( 38,118)   DRY( 38,119)   DRY( 38,120)   DRY( 38,121)   DRY( 38,122)   
    DRY( 38,123)   DRY( 38,124)   DRY( 38,125)   DRY( 38,126)   DRY( 38,127)   
    DRY( 38,128)   DRY( 38,129)   DRY( 38,130)   DRY( 38,131)   DRY( 38,132)   
    DRY( 38,133)   DRY( 38,134)   DRY( 38,135)   DRY( 38,136)   DRY( 38,137)   
    DRY( 38,138)   DRY( 38,139)   DRY( 38,140)   DRY( 38,141)   DRY( 38,142)   
    DRY( 38,143)   DRY( 38,144)   DRY( 38,145)   DRY( 38,146)   DRY( 38,147)   
    DRY( 38,148)   DRY( 38,149)   DRY( 38,150)   DRY( 38,151)   DRY( 38,152)   
    DRY( 38,153)   DRY( 38,154)   DRY( 38,155)   DRY( 38,156)   DRY( 38,157)   
    DRY( 38,158)   DRY( 38,159)   DRY( 38,160)   DRY( 38,161)   DRY( 38,162)   
    DRY( 38,163)   DRY( 38,164)   DRY( 38,165)   DRY( 38,166)   DRY( 38,167)   
    DRY( 38,168)   DRY( 38,169)   DRY( 38,170)   DRY( 38,171)   DRY( 38,172)   
    DRY( 38,173)   DRY( 38,174)   DRY( 38,175)   DRY( 38,176)   DRY( 38,177)   
    DRY( 38,178)   DRY( 38,179)   DRY( 38,180)   DRY( 38,181)   DRY( 38,182)   
    DRY( 38,183)   DRY( 38,184)   DRY( 38,185)   DRY( 38,186)   DRY( 38,187)   
    DRY( 38,188)   DRY( 38,189)   DRY( 38,190)   DRY( 38,191)   DRY( 38,192)   
    DRY( 38,193)   DRY( 38,194)   DRY( 38,195)   DRY( 38,196)   DRY( 38,197)   
    DRY( 38,198)   DRY( 38,199)   DRY( 38,200)   DRY( 38,201)   DRY( 38,202)   
    DRY( 38,203)   DRY( 38,204)   DRY( 38,205)   DRY( 38,206)   DRY( 38,207)   
    DRY( 38,208)   DRY( 38,209)   DRY( 38,210)   DRY( 38,211)   DRY( 38,212)   
    DRY( 38,213)   DRY( 38,214)   DRY( 38,215)   DRY( 38,216)   DRY( 38,217)   
    DRY( 38,218)   DRY( 38,219)   DRY( 38,220)   DRY( 39,  1)   DRY( 39,  2)   
    DRY( 39,  3)   DRY( 39,  4)   DRY( 39,  5)   DRY( 39,  6)   DRY( 39,  7)   
    DRY( 39,  8)   DRY( 39,  9)   DRY( 39, 10)   DRY( 39, 11)   DRY( 39, 12)   
    DRY( 39, 13)   DRY( 39, 14)   DRY( 39, 15)   DRY( 39, 16)   DRY( 39, 17)   
    DRY( 39, 18)   DRY( 39, 19)   DRY( 39, 20)   DRY( 39, 21)   DRY( 39, 22)   
    DRY( 39, 23)   DRY( 39, 24)   DRY( 39, 25)   DRY( 39, 26)   DRY( 39, 27)   
    DRY( 39, 28)   DRY( 39, 29)   DRY( 39, 30)   DRY( 39, 31)   DRY( 39, 32)   
    DRY( 39, 33)   DRY( 39, 34)   DRY( 39, 35)   DRY( 39, 36)   DRY( 39, 37)   
    DRY( 39, 38)   DRY( 39, 39)   DRY( 39, 40)   DRY( 39, 41)   DRY( 39, 42)   
    DRY( 39, 43)   DRY( 39, 44)   DRY( 39, 45)   DRY( 39, 46)   DRY( 39, 47)   
    DRY( 39, 48)   DRY( 39, 49)   DRY( 39, 50)   DRY( 39, 51)   DRY( 39, 52)   
    DRY( 39, 53)   DRY( 39, 54)   DRY( 39, 55)   DRY( 39, 56)   DRY( 39, 57)   
    DRY( 39, 58)   DRY( 39, 59)   DRY( 39, 60)   DRY( 39, 61)   DRY( 39, 62)   
    DRY( 39, 63)   DRY( 39, 64)   DRY( 39, 65)   DRY( 39, 66)   DRY( 39, 67)   
    DRY( 39, 68)   DRY( 39, 69)   DRY( 39, 70)   DRY( 39, 71)   DRY( 39, 72)   
    DRY( 39, 73)   DRY( 39, 74)   DRY( 39, 75)   DRY( 39, 76)   DRY( 39, 77)   
    DRY( 39, 78)   DRY( 39, 79)   DRY( 39, 80)   DRY( 39, 81)   DRY( 39, 82)   
    DRY( 39, 83)   DRY( 39, 84)   DRY( 39, 85)   DRY( 39, 86)   DRY( 39, 87)   
    DRY( 39, 88)   DRY( 39, 89)   DRY( 39, 90)   DRY( 39, 91)   DRY( 39, 92)   
    DRY( 39, 93)   DRY( 39, 94)   DRY( 39, 95)   DRY( 39, 96)   DRY( 39, 97)   
    DRY( 39, 98)   DRY( 39, 99)   DRY( 39,100)   DRY( 39,101)   DRY( 39,102)   
    DRY( 39,103)   DRY( 39,104)   DRY( 39,105)   DRY( 39,106)   DRY( 39,107)   
    DRY( 39,108)   DRY( 39,109)   DRY( 39,110)   DRY( 39,111)   DRY( 39,112)   
    DRY( 39,113)   DRY( 39,114)   DRY( 39,115)   DRY( 39,116)   DRY( 39,117)   
    DRY( 39,118)   DRY( 39,119)   DRY( 39,120)   DRY( 39,121)   DRY( 39,122)   
    DRY( 39,123)   DRY( 39,124)   DRY( 39,125)   DRY( 39,126)   DRY( 39,127)   
    DRY( 39,128)   DRY( 39,129)   DRY( 39,130)   DRY( 39,131)   DRY( 39,132)   
    DRY( 39,133)   DRY( 39,134)   DRY( 39,135)   DRY( 39,136)   DRY( 39,137)   
    DRY( 39,138)   DRY( 39,139)   DRY( 39,140)   DRY( 39,141)   DRY( 39,142)   
    DRY( 39,143)   DRY( 39,144)   DRY( 39,145)   DRY( 39,146)   DRY( 39,147)   
    DRY( 39,148)   DRY( 39,149)   DRY( 39,150)   DRY( 39,151)   DRY( 39,152)   
    DRY( 39,153)   DRY( 39,154)   DRY( 39,155)   DRY( 39,156)   DRY( 39,157)   
    DRY( 39,158)   DRY( 39,159)   DRY( 39,160)   DRY( 39,161)   DRY( 39,162)   
    DRY( 39,163)   DRY( 39,164)   DRY( 39,165)   DRY( 39,166)   DRY( 39,167)   
    DRY( 39,168)   DRY( 39,169)   DRY( 39,170)   DRY( 39,171)   DRY( 39,172)   
    DRY( 39,173)   DRY( 39,174)   DRY( 39,175)   DRY( 39,176)   DRY( 39,177)   
    DRY( 39,178)   DRY( 39,179)   DRY( 39,180)   DRY( 39,181)   DRY( 39,182)   
    DRY( 39,183)   DRY( 39,184)   DRY( 39,185)   DRY( 39,186)   DRY( 39,187)   
    DRY( 39,188)   DRY( 39,189)   DRY( 39,190)   DRY( 39,191)   DRY( 39,192)   
    DRY( 39,193)   DRY( 39,194)   DRY( 39,195)   DRY( 39,196)   DRY( 39,197)   
    DRY( 39,198)   DRY( 39,199)   DRY( 39,200)   DRY( 39,201)   DRY( 39,202)   
    DRY( 39,203)   DRY( 39,204)   DRY( 39,205)   DRY( 39,206)   DRY( 39,207)   
    DRY( 39,208)   DRY( 39,209)   DRY( 39,210)   DRY( 39,211)   DRY( 39,212)   
    DRY( 39,213)   DRY( 39,214)   DRY( 39,215)   DRY( 39,216)   DRY( 39,217)   
    DRY( 39,218)   DRY( 39,219)   DRY( 39,220)   DRY( 40,  1)   DRY( 40,  2)   
    DRY( 40,  3)   DRY( 40,  4)   DRY( 40,  5)   DRY( 40,  6)   DRY( 40,  7)   
    DRY( 40,  8)   DRY( 40,  9)   DRY( 40, 10)   DRY( 40, 11)   DRY( 40, 12)   
    DRY( 40, 13)   DRY( 40, 14)   DRY( 40, 15)   DRY( 40, 16)   DRY( 40, 17)   
    DRY( 40, 18)   DRY( 40, 19)   DRY( 40, 20)   DRY( 40, 21)   DRY( 40, 22)   
    DRY( 40, 23)   DRY( 40, 24)   DRY( 40, 25)   DRY( 40, 26)   DRY( 40, 27)   
    DRY( 40, 28)   DRY( 40, 29)   DRY( 40, 30)   DRY( 40, 31)   DRY( 40, 32)   
    DRY( 40, 33)   DRY( 40, 34)   DRY( 40, 35)   DRY( 40, 36)   DRY( 40, 37)   
    DRY( 40, 38)   DRY( 40, 39)   DRY( 40, 40)   DRY( 40, 41)   DRY( 40, 42)   
    DRY( 40, 43)   DRY( 40, 44)   DRY( 40, 45)   DRY( 40, 46)   DRY( 40, 47)   
    DRY( 40, 48)   DRY( 40, 49)   DRY( 40, 50)   DRY( 40, 51)   DRY( 40, 52)   
    DRY( 40, 53)   DRY( 40, 54)   DRY( 40, 55)   DRY( 40, 56)   DRY( 40, 57)   
    DRY( 40, 58)   DRY( 40, 59)   DRY( 40, 60)   DRY( 40, 61)   DRY( 40, 62)   
    DRY( 40, 63)   DRY( 40, 64)   DRY( 40, 65)   DRY( 40, 66)   DRY( 40, 67)   
    DRY( 40, 68)   DRY( 40, 69)   DRY( 40, 70)   DRY( 40, 71)   DRY( 40, 72)   
    DRY( 40, 73)   DRY( 40, 74)   DRY( 40, 75)   DRY( 40, 76)   DRY( 40, 77)   
    DRY( 40, 78)   DRY( 40, 79)   DRY( 40, 80)   DRY( 40, 81)   DRY( 40, 82)   
    DRY( 40, 83)   DRY( 40, 84)   DRY( 40, 85)   DRY( 40, 86)   DRY( 40, 87)   
    DRY( 40, 88)   DRY( 40, 89)   DRY( 40, 90)   DRY( 40, 91)   DRY( 40, 92)   
    DRY( 40, 93)   DRY( 40, 94)   DRY( 40, 95)   DRY( 40, 96)   DRY( 40, 97)   
    DRY( 40, 98)   DRY( 40, 99)   DRY( 40,100)   DRY( 40,101)   DRY( 40,102)   
    DRY( 40,103)   DRY( 40,104)   DRY( 40,105)   DRY( 40,106)   DRY( 40,107)   
    DRY( 40,108)   DRY( 40,109)   DRY( 40,110)   DRY( 40,111)   DRY( 40,112)   
    DRY( 40,113)   DRY( 40,114)   DRY( 40,115)   DRY( 40,116)   DRY( 40,117)   
    DRY( 40,118)   DRY( 40,119)   DRY( 40,120)   DRY( 40,121)   DRY( 40,122)   
    DRY( 40,123)   DRY( 40,124)   DRY( 40,125)   DRY( 40,126)   DRY( 40,127)   
    DRY( 40,128)   DRY( 40,129)   DRY( 40,130)   DRY( 40,131)   DRY( 40,132)   
    DRY( 40,133)   DRY( 40,134)   DRY( 40,135)   DRY( 40,136)   DRY( 40,137)   
    DRY( 40,138)   DRY( 40,139)   DRY( 40,140)   DRY( 40,141)   DRY( 40,142)   
    DRY( 40,143)   DRY( 40,144)   DRY( 40,145)   DRY( 40,146)   DRY( 40,147)   
    DRY( 40,148)   DRY( 40,149)   DRY( 40,150)   DRY( 40,151)   DRY( 40,152)   
    DRY( 40,153)   DRY( 40,154)   DRY( 40,155)   DRY( 40,156)   DRY( 40,157)   
    DRY( 40,158)   DRY( 40,159)   DRY( 40,160)   DRY( 40,161)   DRY( 40,162)   
    DRY( 40,163)   DRY( 40,164)   DRY( 40,165)   DRY( 40,166)   DRY( 40,167)   
    DRY( 40,168)   DRY( 40,169)   DRY( 40,170)   DRY( 40,171)   DRY( 40,172)   
    DRY( 40,173)   DRY( 40,174)   DRY( 40,175)   DRY( 40,176)   DRY( 40,177)   
    DRY( 40,178)   DRY( 40,179)   DRY( 40,180)   DRY( 40,181)   DRY( 40,182)   
    DRY( 40,183)   DRY( 40,184)   DRY( 40,185)   DRY( 40,186)   DRY( 40,187)   
    DRY( 40,188)   DRY( 40,189)   DRY( 40,190)   DRY( 40,191)   DRY( 40,192)   
    DRY( 40,193)   DRY( 40,194)   DRY( 40,195)   DRY( 40,196)   DRY( 40,197)   
    DRY( 40,198)   DRY( 40,199)   DRY( 40,200)   DRY( 40,201)   DRY( 40,202)   
    DRY( 40,203)   DRY( 40,204)   DRY( 40,205)   DRY( 40,206)   DRY( 40,207)   
    DRY( 40,208)   DRY( 40,209)   DRY( 40,210)   DRY( 40,211)   DRY( 40,212)   
    DRY( 40,213)   DRY( 40,214)   DRY( 40,215)   DRY( 40,216)   DRY( 40,217)   
    DRY( 40,218)   DRY( 40,219)   DRY( 40,220)   

 CELL CONVERSIONS FOR ITER.=  2  LAYER= 12  STEP=  1  PERIOD=   1   (ROW,COL)
    DRY( 26,  1)   DRY( 27,  1)   DRY( 27,  2)   DRY( 27,  3)   DRY( 28,  1)   
    DRY( 28,  2)   DRY( 28,  3)   DRY( 28,  4)   DRY( 28,  5)   DRY( 28,  6)   
    DRY( 29,  1)   DRY( 29,  2)   DRY( 29,  3)   DRY( 29,  4)   DRY( 29,  5)   
    DRY( 29,  6)   DRY( 29,  7)   DRY( 29,  8)   DRY( 29,  9)   DRY( 29, 10)   
    DRY( 29, 11)   DRY( 29, 12)   DRY( 29, 13)   DRY( 29, 14)   DRY( 29, 28)   
    DRY( 29, 29)   DRY( 29, 30)   DRY( 29, 31)   DRY( 30,  1)   DRY( 30,  2)   
    DRY( 30,  3)   DRY( 30,  4)   DRY( 30,  5)   DRY( 30,  6)   DRY( 30,  7)   
    DRY( 30,  8)   DRY( 30,  9)   DRY( 30, 10)   DRY( 30, 11)   DRY( 30, 12)   
    DRY( 30, 13)   DRY( 30, 14)   DRY( 30, 15)   DRY( 30, 16)   DRY( 30, 17)   
    DRY( 30, 18)   DRY( 30, 19)   DRY( 30, 20)   DRY( 30, 21)   DRY( 30, 22)   
    DRY( 30, 23)   DRY( 30, 24)   DRY( 30, 25)   DRY( 30, 26)   DRY( 30, 27)   
    DRY( 30, 28)   DRY( 30, 29)   DRY( 30, 30)   DRY( 30, 31)   DRY( 30, 32)   
    DRY( 30, 33)   DRY( 30, 34)   DRY( 30, 35)   DRY( 30, 36)   DRY( 30, 37)   
    DRY( 30, 38)   DRY( 30, 39)   DRY( 30, 40)   DRY( 30, 41)   DRY( 30, 42)   
    DRY( 30, 43)   DRY( 30, 44)   DRY( 30, 45)   DRY( 31,  1)   DRY( 31,  2)   
    DRY( 31,  3)   DRY( 31,  4)   DRY( 31,  5)   DRY( 31,  6)   DRY( 31,  7)   
    DRY( 31,  8)   DRY( 31,  9)   DRY( 31, 10)   DRY( 31, 11)   DRY( 31, 12)   
    DRY( 31, 13)   DRY( 31, 14)   DRY( 31, 15)   DRY( 31, 16)   DRY( 31, 17)   
    DRY( 31, 18)   DRY( 31, 19)   DRY( 31, 20)   DRY( 31, 21)   DRY( 31, 22)   
    DRY( 31, 23)   DRY( 31, 24)   DRY( 31, 25)   DRY( 31, 26)   DRY( 31, 27)   
    DRY( 31, 28)   DRY( 31, 29)   DRY( 31, 30)   DRY( 31, 31)   DRY( 31, 32)   
    DRY( 31, 33)   DRY( 31, 34)   DRY( 31, 35)   DRY( 31, 36)   DRY( 31, 37)   
    DRY( 31, 38)   DRY( 31, 39)   DRY( 31, 40)   DRY( 31, 41)   DRY( 31, 42)   
    DRY( 31, 43)   DRY( 31, 44)   DRY( 31, 45)   DRY( 31, 46)   DRY( 31, 47)   
    DRY( 31, 48)   DRY( 31, 49)   DRY( 31, 50)   DRY( 31, 51)   DRY( 31, 52)   
    DRY( 31, 53)   DRY( 31, 54)   DRY( 31, 65)   DRY( 31, 66)   DRY( 31, 67)   
    DRY( 31, 68)   DRY( 31, 69)   DRY( 31, 70)   DRY( 31, 71)   DRY( 31, 72)   
    DRY( 31, 73)   DRY( 31, 74)   DRY( 31, 75)   DRY( 31, 76)   DRY( 31, 77)   
    DRY( 31, 78)   DRY( 31, 79)   DRY( 31, 80)   DRY( 31, 81)   DRY( 31, 82)   
    DRY( 31, 83)   DRY( 31, 84)   DRY( 31, 85)   DRY( 31, 86)   DRY( 31, 87)   
    DRY( 31, 88)   DRY( 31, 89)   DRY( 31, 90)   DRY( 31, 91)   DRY( 31, 92)   
    DRY( 31, 93)   DRY( 31, 94)   DRY( 31, 95)   DRY( 31, 96)   DRY( 31, 97)   
    DRY( 31, 98)   DRY( 31, 99)   DRY( 31,100)   DRY( 31,101)   DRY( 31,102)   
    DRY( 31,103)   DRY( 31,104)   DRY( 31,105)   DRY( 31,106)   DRY( 31,107)   
    DRY( 31,108)   DRY( 31,109)   DRY( 32,  1)   DRY( 32,  2)   DRY( 32,  3)   
    DRY( 32,  4)   DRY( 32,  5)   DRY( 32,  6)   DRY( 32,  7)   DRY( 32,  8)   
    DRY( 32,  9)   DRY( 32, 10)   DRY( 32, 11)   DRY( 32, 12)   DRY( 32, 13)   
    DRY( 32, 14)   DRY( 32, 15)   DRY( 32, 16)   DRY( 32, 17)   DRY( 32, 18)   
    DRY( 32, 19)   DRY( 32, 20)   DRY( 32, 21)   DRY( 32, 22)   DRY( 32, 23)   
    DRY( 32, 24)   DRY( 32, 25)   DRY( 32, 26)   DRY( 32, 27)   DRY( 32, 28)   
    DRY( 32, 29)   DRY( 32, 30)   DRY( 32, 31)   DRY( 32, 32)   DRY( 32, 33)   
    DRY( 32, 34)   DRY( 32, 35)   DRY( 32, 36)   DRY( 32, 37)   DRY( 32, 38)   
    DRY( 32, 39)   DRY( 32, 40)   DRY( 32, 41)   DRY( 32, 42)   DRY( 32, 43)   
    DRY( 32, 44)   DRY( 32, 45)   DRY( 32, 46)   DRY( 32, 47)   DRY( 32, 48)   
    DRY( 32, 49)   DRY( 32, 50)   DRY( 32, 51)   DRY( 32, 52)   DRY( 32, 53)   
    DRY( 32, 54)   DRY( 32, 55)   DRY( 32, 56)   DRY( 32, 57)   DRY( 32, 58)   
    DRY( 32, 59)   DRY( 32, 60)   DRY( 32, 61)   DRY( 32, 62)   DRY( 32, 63)   
    DRY( 32, 64)   DRY( 32, 65)   DRY( 32, 66)   DRY( 32, 67)   DRY( 32, 68)   
    DRY( 32, 69)   DRY( 32, 70)   DRY( 32, 71)   DRY( 32, 72)   DRY( 32, 73)   
    DRY( 32, 74)   DRY( 32, 75)   DRY( 32, 76)   DRY( 32, 77)   DRY( 32, 78)   
    DRY( 32, 79)   DRY( 32, 80)   DRY( 32, 81)   DRY( 32, 82)   DRY( 32, 83)   
    DRY( 32, 84)   DRY( 32, 85)   DRY( 32, 86)   DRY( 32, 87)   DRY( 32, 88)   
    DRY( 32, 89)   DRY( 32, 90)   DRY( 32, 91)   DRY( 32, 92)   DRY( 32, 93)   
    DRY( 32, 94)   DRY( 32, 95)   DRY( 32, 96)   DRY( 32, 97)   DRY( 32, 98)   
    DRY( 32, 99)   DRY( 32,100)   DRY( 32,101)   DRY( 32,102)   DRY( 32,103)   
    DRY( 32,104)   DRY( 32,105)   DRY( 32,106)   DRY( 32,107)   DRY( 32,108)   
    DRY( 32,109)   DRY( 32,110)   DRY( 32,111)   DRY( 32,112)   DRY( 32,113)   
    DRY( 32,114)   DRY( 32,115)   DRY( 32,116)   DRY( 32,117)   DRY( 32,118)   
    DRY( 32,119)   DRY( 32,120)   DRY( 32,121)   DRY( 32,122)   DRY( 32,123)   
    DRY( 32,124)   DRY( 32,156)   DRY( 32,157)   DRY( 32,158)   DRY( 32,159)   
    DRY( 32,160)   DRY( 32,161)   DRY( 32,176)   DRY( 32,177)   DRY( 32,178)   
    DRY( 32,205)   DRY( 32,206)   DRY( 32,207)   DRY( 32,208)   DRY( 33,  1)   
    DRY( 33,  2)   DRY( 33,  3)   DRY( 33,  4)   DRY( 33,  5)   DRY( 33,  6)   
    DRY( 33,  7)   DRY( 33,  8)   DRY( 33,  9)   DRY( 33, 10)   DRY( 33, 11)   
    DRY( 33, 12)   DRY( 33, 13)   DRY( 33, 14)   DRY( 33, 15)   DRY( 33, 16)   
    DRY( 33, 17)   DRY( 33, 18)   DRY( 33, 19)   DRY( 33, 20)   DRY( 33, 21)   
    DRY( 33, 22)   DRY( 33, 23)   DRY( 33, 24)   DRY( 33, 25)   DRY( 33, 26)   
    DRY( 33, 27)   DRY( 33, 28)   DRY( 33, 29)   DRY( 33, 30)   DRY( 33, 31)   
    DRY( 33, 32)   DRY( 33, 33)   DRY( 33, 34)   DRY( 33, 35)   DRY( 33, 36)   
    DRY( 33, 37)   DRY( 33, 38)   DRY( 33, 39)   DRY( 33, 40)   DRY( 33, 41)   
    DRY( 33, 42)   DRY( 33, 43)   DRY( 33, 44)   DRY( 33, 45)   DRY( 33, 46)   
    DRY( 33, 47)   DRY( 33, 48)   DRY( 33, 49)   DRY( 33, 50)   DRY( 33, 51)   
    DRY( 33, 52)   DRY( 33, 53)   DRY( 33, 54)   DRY( 33, 55)   DRY( 33, 56)   
    DRY( 33, 57)   DRY( 33, 58)   DRY( 33, 59)   DRY( 33, 60)   DRY( 33, 61)   
    DRY( 33, 62)   DRY( 33, 63)   DRY( 33, 64)   DRY( 33, 65)   DRY( 33, 66)   
    DRY( 33, 67)   DRY( 33, 68)   DRY( 33, 69)   DRY( 33, 70)   DRY( 33, 71)   
    DRY( 33, 72)   DRY( 33, 73)   DRY( 33, 74)   DRY( 33, 75)   DRY( 33, 76)   
    DRY( 33, 77)   DRY( 33, 78)   DRY( 33, 79)   DRY( 33, 80)   DRY( 33, 81)   
    DRY( 33, 82)   DRY( 33, 83)   DRY( 33, 84)   DRY( 33, 85)   DRY( 33, 86)   
    DRY( 33, 87)   DRY( 33, 88)   DRY( 33, 89)   DRY( 33, 90)   DRY( 33, 91)   
    DRY( 33, 92)   DRY( 33, 93)   DRY( 33, 94)   DRY( 33, 95)   DRY( 33, 96)   
    DRY( 33, 97)   DRY( 33, 98)   DRY( 33, 99)   DRY( 33,100)   DRY( 33,101)   
    DRY( 33,102)   DRY( 33,103)   DRY( 33,104)   DRY( 33,105)   DRY( 33,106)   
    DRY( 33,107)   DRY( 33,108)   DRY( 33,109)   DRY( 33,110)   DRY( 33,111)   
    DRY( 33,112)   DRY( 33,113)   DRY( 33,114)   DRY( 33,115)   DRY( 33,116)   
    DRY( 33,117)   DRY( 33,118)   DRY( 33,119)   DRY( 33,120)   DRY( 33,121)   
    DRY( 33,122)   DRY( 33,123)   DRY( 33,124)   DRY( 33,125)   DRY( 33,126)   
    DRY( 33,127)   DRY( 33,128)   DRY( 33,129)   DRY( 33,130)   DRY( 33,131)   
    DRY( 33,132)   DRY( 33,133)   DRY( 33,134)   DRY( 33,135)   DRY( 33,136)   
    DRY( 33,137)   DRY( 33,138)   DRY( 33,139)   DRY( 33,140)   DRY( 33,141)   
    DRY( 33,142)   DRY( 33,143)   DRY( 33,144)   DRY( 33,145)   DRY( 33,146)   
    DRY( 33,147)   DRY( 33,148)   DRY( 33,149)   DRY( 33,150)   DRY( 33,151)   
    DRY( 33,152)   DRY( 33,153)   DRY( 33,154)   DRY( 33,155)   DRY( 33,156)   
    DRY( 33,157)   DRY( 33,158)   DRY( 33,159)   DRY( 33,160)   DRY( 33,161)   
    DRY( 33,162)   DRY( 33,163)   DRY( 33,164)   DRY( 33,165)   DRY( 33,166)   
    DRY( 33,167)   DRY( 33,168)   DRY( 33,169)   DRY( 33,170)   DRY( 33,171)   
    DRY( 33,172)   DRY( 33,173)   DRY( 33,174)   DRY( 33,175)   DRY( 33,176)   
    DRY( 33,177)   DRY( 33,178)   DRY( 33,179)   DRY( 33,180)   DRY( 33,181)   
    DRY( 33,182)   DRY( 33,183)   DRY( 33,184)   DRY( 33,190)   DRY( 33,191)   
    DRY( 33,192)   DRY( 33,193)   DRY( 33,194)   DRY( 33,195)   DRY( 33,196)   
    DRY( 33,197)   DRY( 33,198)   DRY( 33,199)   DRY( 33,200)   DRY( 33,201)   
    DRY( 33,202)   DRY( 33,203)   DRY( 33,204)   DRY( 33,205)   DRY( 33,206)   
    DRY( 33,207)   DRY( 33,208)   DRY( 33,209)   DRY( 33,210)   DRY( 33,211)   
    DRY( 33,212)   DRY( 34,  1)   DRY( 34,  2)   DRY( 34,  3)   DRY( 34,  4)   
    DRY( 34,  5)   DRY( 34,  6)   DRY( 34,  7)   DRY( 34,  8)   DRY( 34,  9)   
    DRY( 34, 10)   DRY( 34, 11)   DRY( 34, 12)   DRY( 34, 13)   DRY( 34, 14)   
    DRY( 34, 15)   DRY( 34, 16)   DRY( 34, 17)   DRY( 34, 18)   DRY( 34, 19)   
    DRY( 34, 20)   DRY( 34, 21)   DRY( 34, 22)   DRY( 34, 23)   DRY( 34, 24)   
    DRY( 34, 25)   DRY( 34, 26)   DRY( 34, 27)   DRY( 34, 28)   DRY( 34, 29)   
    DRY( 34, 30)   DRY( 34, 31)   DRY( 34, 32)   DRY( 34, 33)   DRY( 34, 34)   
    DRY( 34, 35)   DRY( 34, 36)   DRY( 34, 37)   DRY( 34, 38)   DRY( 34, 39)   
    DRY( 34, 40)   DRY( 34, 41)   DRY( 34, 42)   DRY( 34, 43)   DRY( 34, 44)   
    DRY( 34, 45)   DRY( 34, 46)   DRY( 34, 47)   DRY( 34, 48)   DRY( 34, 49)   
    DRY( 34, 50)   DRY( 34, 51)   DRY( 34, 52)   DRY( 34, 53)   DRY( 34, 54)   
    DRY( 34, 55)   DRY( 34, 56)   DRY( 34, 57)   DRY( 34, 58)   DRY( 34, 59)   
    DRY( 34, 60)   DRY( 34, 61)   DRY( 34, 62)   DRY( 34, 63)   DRY( 34, 64)   
    DRY( 34, 65)   DRY( 34, 66)   DRY( 34, 67)   DRY( 34, 68)   DRY( 34, 69)   
    DRY( 34, 70)   DRY( 34, 71)   DRY( 34, 72)   DRY( 34, 73)   DRY( 34, 74)   
    DRY( 34, 75)   DRY( 34, 76)   DRY( 34, 77)   DRY( 34, 78)   DRY( 34, 79)   
    DRY( 34, 80)   DRY( 34, 81)   DRY( 34, 82)   DRY( 34, 83)   DRY( 34, 84)   
    DRY( 34, 85)   DRY( 34, 86)   DRY( 34, 87)   DRY( 34, 88)   DRY( 34, 89)   
    DRY( 34, 90)   DRY( 34, 91)   DRY( 34, 92)   DRY( 34, 93)   DRY( 34, 94)   
    DRY( 34, 95)   DRY( 34, 96)   DRY( 34, 97)   DRY( 34, 98)   DRY( 34, 99)   
    DRY( 34,100)   DRY( 34,101)   DRY( 34,102)   DRY( 34,103)   DRY( 34,104)   
    DRY( 34,105)   DRY( 34,106)   DRY( 34,107)   DRY( 34,108)   DRY( 34,109)   
    DRY( 34,110)   DRY( 34,111)   DRY( 34,112)   DRY( 34,113)   DRY( 34,114)   
    DRY( 34,115)   DRY( 34,116)   DRY( 34,117)   DRY( 34,118)   DRY( 34,119)   
    DRY( 34,120)   DRY( 34,121)   DRY( 34,122)   DRY( 34,123)   DRY( 34,124)   
    DRY( 34,125)   DRY( 34,126)   DRY( 34,127)   DRY( 34,128)   DRY( 34,129)   
    DRY( 34,130)   DRY( 34,131)   DRY( 34,132)   DRY( 34,133)   DRY( 34,134)   
    DRY( 34,135)   DRY( 34,136)   DRY( 34,137)   DRY( 34,138)   DRY( 34,139)   
    DRY( 34,140)   DRY( 34,141)   DRY( 34,142)   DRY( 34,143)   DRY( 34,144)   
    DRY( 34,145)   DRY( 34,146)   DRY( 34,147)   DRY( 34,148)   DRY( 34,149)   
    DRY( 34,150)   DRY( 34,151)   DRY( 34,152)   DRY( 34,153)   DRY( 34,154)   
    DRY( 34,155)   DRY( 34,156)   DRY( 34,157)   DRY( 34,158)   DRY( 34,159)   
    DRY( 34,160)   DRY( 34,161)   DRY( 34,162)   DRY( 34,163)   DRY( 34,164)   
    DRY( 34,165)   DRY( 34,166)   DRY( 34,167)   DRY( 34,168)   DRY( 34,169)   
    DRY( 34,170)   DRY( 34,171)   DRY( 34,172)   DRY( 34,173)   DRY( 34,174)   
    DRY( 34,175)   DRY( 34,176)   DRY( 34,177)   DRY( 34,178)   DRY( 34,179)   
    DRY( 34,180)   DRY( 34,181)   DRY( 34,182)   DRY( 34,183)   DRY( 34,184)   
    DRY( 34,185)   DRY( 34,186)   DRY( 34,187)   DRY( 34,188)   DRY( 34,189)   
    DRY( 34,190)   DRY( 34,191)   DRY( 34,192)   DRY( 34,193)   DRY( 34,194)   
    DRY( 34,195)   DRY( 34,196)   DRY( 34,197)   DRY( 34,198)   DRY( 34,199)   
    DRY( 34,200)   DRY( 34,201)   DRY( 34,202)   DRY( 34,203)   DRY( 34,204)   
    DRY( 34,205)   DRY( 34,206)   DRY( 34,207)   DRY( 34,208)   DRY( 34,209)   
    DRY( 34,210)   DRY( 34,211)   DRY( 34,212)   DRY( 34,213)   DRY( 34,214)   
    DRY( 35,  1)   DRY( 35,  2)   DRY( 35,  3)   DRY( 35,  4)   DRY( 35,  5)   
    DRY( 35,  6)   DRY( 35,  7)   DRY( 35,  8)   DRY( 35,  9)   DRY( 35, 10)   
    DRY( 35, 11)   DRY( 35, 12)   DRY( 35, 13)   DRY( 35, 14)   DRY( 35, 15)   
    DRY( 35, 16)   DRY( 35, 17)   DRY( 35, 18)   DRY( 35, 19)   DRY( 35, 20)   
    DRY( 35, 21)   DRY( 35, 22)   DRY( 35, 23)   DRY( 35, 24)   DRY( 35, 25)   
    DRY( 35, 26)   DRY( 35, 27)   DRY( 35, 28)   DRY( 35, 29)   DRY( 35, 30)   
    DRY( 35, 31)   DRY( 35, 32)   DRY( 35, 33)   DRY( 35, 34)   DRY( 35, 35)   
    DRY( 35, 36)   DRY( 35, 37)   DRY( 35, 38)   DRY( 35, 39)   DRY( 35, 40)   
    DRY( 35, 41)   DRY( 35, 42)   DRY( 35, 43)   DRY( 35, 44)   DRY( 35, 45)   
    DRY( 35, 46)   DRY( 35, 47)   DRY( 35, 48)   DRY( 35, 49)   DRY( 35, 50)   
    DRY( 35, 51)   DRY( 35, 52)   DRY( 35, 53)   DRY( 35, 54)   DRY( 35, 55)   
    DRY( 35, 56)   DRY( 35, 57)   DRY( 35, 58)   DRY( 35, 59)   DRY( 35, 60)   
    DRY( 35, 61)   DRY( 35, 62)   DRY( 35, 63)   DRY( 35, 64)   DRY( 35, 65)   
    DRY( 35, 66)   DRY( 35, 67)   DRY( 35, 68)   DRY( 35, 69)   DRY( 35, 70)   
    DRY( 35, 71)   DRY( 35, 72)   DRY( 35, 73)   DRY( 35, 74)   DRY( 35, 75)   
    DRY( 35, 76)   DRY( 35, 77)   DRY( 35, 78)   DRY( 35, 79)   DRY( 35, 80)   
    DRY( 35, 81)   DRY( 35, 82)   DRY( 35, 83)   DRY( 35, 84)   DRY( 35, 85)   
    DRY( 35, 86)   DRY( 35, 87)   DRY( 35, 88)   DRY( 35, 89)   DRY( 35, 90)   
    DRY( 35, 91)   DRY( 35, 92)   DRY( 35, 93)   DRY( 35, 94)   DRY( 35, 95)   
    DRY( 35, 96)   DRY( 35, 97)   DRY( 35, 98)   DRY( 35, 99)   DRY( 35,100)   
    DRY( 35,101)   DRY( 35,102)   DRY( 35,103)   DRY( 35,104)   DRY( 35,105)   
    DRY( 35,106)   DRY( 35,107)   DRY( 35,108)   DRY( 35,109)   DRY( 35,110)   
    DRY( 35,111)   DRY( 35,112)   DRY( 35,113)   DRY( 35,114)   DRY( 35,115)   
    DRY( 35,116)   DRY( 35,117)   DRY( 35,118)   DRY( 35,119)   DRY( 35,120)   
    DRY( 35,121)   DRY( 35,122)   DRY( 35,123)   DRY( 35,124)   DRY( 35,125)   
    DRY( 35,126)   DRY( 35,127)   DRY( 35,128)   DRY( 35,129)   DRY( 35,130)   
    DRY( 35,131)   DRY( 35,132)   DRY( 35,133)   DRY( 35,134)   DRY( 35,135)   
    DRY( 35,136)   DRY( 35,137)   DRY( 35,138)   DRY( 35,139)   DRY( 35,140)   
    DRY( 35,141)   DRY( 35,142)   DRY( 35,143)   DRY( 35,144)   DRY( 35,145)   
    DRY( 35,146)   DRY( 35,147)   DRY( 35,148)   DRY( 35,149)   DRY( 35,150)   
    DRY( 35,151)   DRY( 35,152)   DRY( 35,153)   DRY( 35,154)   DRY( 35,155)   
    DRY( 35,156)   DRY( 35,157)   DRY( 35,158)   DRY( 35,159)   DRY( 35,160)   
    DRY( 35,161)   DRY( 35,162)   DRY( 35,163)   DRY( 35,164)   DRY( 35,165)   
    DRY( 35,166)   DRY( 35,167)   DRY( 35,168)   DRY( 35,169)   DRY( 35,170)   
    DRY( 35,171)   DRY( 35,172)   DRY( 35,173)   DRY( 35,174)   DRY( 35,175)   
    DRY( 35,176)   DRY( 35,177)   DRY( 35,178)   DRY( 35,179)   DRY( 35,180)   
    DRY( 35,181)   DRY( 35,182)   DRY( 35,183)   DRY( 35,184)   DRY( 35,185)   
    DRY( 35,186)   DRY( 35,187)   DRY( 35,188)   DRY( 35,189)   DRY( 35,190)   
    DRY( 35,191)   DRY( 35,192)   DRY( 35,193)   DRY( 35,194)   DRY( 35,195)   
    DRY( 35,196)   DRY( 35,197)   DRY( 35,198)   DRY( 35,199)   DRY( 35,200)   
    DRY( 35,201)   DRY( 35,202)   DRY( 35,203)   DRY( 35,204)   DRY( 35,205)   
    DRY( 35,206)   DRY( 35,207)   DRY( 35,208)   DRY( 35,209)   DRY( 35,210)   
    DRY( 35,211)   DRY( 35,212)   DRY( 35,213)   DRY( 35,214)   DRY( 35,215)   
    DRY( 35,216)   DRY( 36,  1)   DRY( 36,  2)   DRY( 36,  3)   DRY( 36,  4)   
    DRY( 36,  5)   DRY( 36,  6)   DRY( 36,  7)   DRY( 36,  8)   DRY( 36,  9)   
    DRY( 36, 10)   DRY( 36, 11)   DRY( 36, 12)   DRY( 36, 13)   DRY( 36, 14)   
    DRY( 36, 15)   DRY( 36, 16)   DRY( 36, 17)   DRY( 36, 18)   DRY( 36, 19)   
    DRY( 36, 20)   DRY( 36, 21)   DRY( 36, 22)   DRY( 36, 23)   DRY( 36, 24)   
    DRY( 36, 25)   DRY( 36, 26)   DRY( 36, 27)   DRY( 36, 28)   DRY( 36, 29)   
    DRY( 36, 30)   DRY( 36, 31)   DRY( 36, 32)   DRY( 36, 33)   DRY( 36, 34)   
    DRY( 36, 35)   DRY( 36, 36)   DRY( 36, 37)   DRY( 36, 38)   DRY( 36, 39)   
    DRY( 36, 40)   DRY( 36, 41)   DRY( 36, 42)   DRY( 36, 43)   DRY( 36, 44)   
    DRY( 36, 45)   DRY( 36, 46)   DRY( 36, 47)   DRY( 36, 48)   DRY( 36, 49)   
    DRY( 36, 50)   DRY( 36, 51)   DRY( 36, 52)   DRY( 36, 53)   DRY( 36, 54)   
    DRY( 36, 55)   DRY( 36, 56)   DRY( 36, 57)   DRY( 36, 58)   DRY( 36, 59)   
    DRY( 36, 60)   DRY( 36, 61)   DRY( 36, 62)   DRY( 36, 63)   DRY( 36, 64)   
    DRY( 36, 65)   DRY( 36, 66)   DRY( 36, 67)   DRY( 36, 68)   DRY( 36, 69)   
    DRY( 36, 70)   DRY( 36, 71)   DRY( 36, 72)   DRY( 36, 73)   DRY( 36, 74)   
    DRY( 36, 75)   DRY( 36, 76)   DRY( 36, 77)   DRY( 36, 78)   DRY( 36, 79)   
    DRY( 36, 80)   DRY( 36, 81)   DRY( 36, 82)   DRY( 36, 83)   DRY( 36, 84)   
    DRY( 36, 85)   DRY( 36, 86)   DRY( 36, 87)   DRY( 36, 88)   DRY( 36, 89)   
    DRY( 36, 90)   DRY( 36, 91)   DRY( 36, 92)   DRY( 36, 93)   DRY( 36, 94)   
    DRY( 36, 95)   DRY( 36, 96)   DRY( 36, 97)   DRY( 36, 98)   DRY( 36, 99)   
    DRY( 36,100)   DRY( 36,101)   DRY( 36,102)   DRY( 36,103)   DRY( 36,104)   
    DRY( 36,105)   DRY( 36,106)   DRY( 36,107)   DRY( 36,108)   DRY( 36,109)   
    DRY( 36,110)   DRY( 36,111)   DRY( 36,112)   DRY( 36,113)   DRY( 36,114)   
    DRY( 36,115)   DRY( 36,116)   DRY( 36,117)   DRY( 36,118)   DRY( 36,119)   
    DRY( 36,120)   DRY( 36,121)   DRY( 36,122)   DRY( 36,123)   DRY( 36,124)   
    DRY( 36,125)   DRY( 36,126)   DRY( 36,127)   DRY( 36,128)   DRY( 36,129)   
    DRY( 36,130)   DRY( 36,131)   DRY( 36,132)   DRY( 36,133)   DRY( 36,134)   
    DRY( 36,135)   DRY( 36,136)   DRY( 36,137)   DRY( 36,138)   DRY( 36,139)   
    DRY( 36,140)   DRY( 36,141)   DRY( 36,142)   DRY( 36,143)   DRY( 36,144)   
    DRY( 36,145)   DRY( 36,146)   DRY( 36,147)   DRY( 36,148)   DRY( 36,149)   
    DRY( 36,150)   DRY( 36,151)   DRY( 36,152)   DRY( 36,153)   DRY( 36,154)   
    DRY( 36,155)   DRY( 36,156)   DRY( 36,157)   DRY( 36,158)   DRY( 36,159)   
    DRY( 36,160)   DRY( 36,161)   DRY( 36,162)   DRY( 36,163)   DRY( 36,164)   
    DRY( 36,165)   DRY( 36,166)   DRY( 36,167)   DRY( 36,168)   DRY( 36,169)   
    DRY( 36,170)   DRY( 36,171)   DRY( 36,172)   DRY( 36,173)   DRY( 36,174)   
    DRY( 36,175)   DRY( 36,176)   DRY( 36,177)   DRY( 36,178)   DRY( 36,179)   
    DRY( 36,180)   DRY( 36,181)   DRY( 36,182)   DRY( 36,183)   DRY( 36,184)   
    DRY( 36,185)   DRY( 36,186)   DRY( 36,187)   DRY( 36,188)   DRY( 36,189)   
    DRY( 36,190)   DRY( 36,191)   DRY( 36,192)   DRY( 36,193)   DRY( 36,194)   
    DRY( 36,195)   DRY( 36,196)   DRY( 36,197)   DRY( 36,198)   DRY( 36,199)   
    DRY( 36,200)   DRY( 36,201)   DRY( 36,202)   DRY( 36,203)   DRY( 36,204)   
    DRY( 36,205)   DRY( 36,206)   DRY( 36,207)   DRY( 36,208)   DRY( 36,209)   
    DRY( 36,210)   DRY( 36,211)   DRY( 36,212)   DRY( 36,213)   DRY( 36,214)   
    DRY( 36,215)   DRY( 36,216)   DRY( 36,217)   DRY( 37,  1)   DRY( 37,  2)   
    DRY( 37,  3)   DRY( 37,  4)   DRY( 37,  5)   DRY( 37,  6)   DRY( 37,  7)   
    DRY( 37,  8)   DRY( 37,  9)   DRY( 37, 10)   DRY( 37, 11)   DRY( 37, 12)   
    DRY( 37, 13)   DRY( 37, 14)   DRY( 37, 15)   DRY( 37, 16)   DRY( 37, 17)   
    DRY( 37, 18)   DRY( 37, 19)   DRY( 37, 20)   DRY( 37, 21)   DRY( 37, 22)   
    DRY( 37, 23)   DRY( 37, 24)   DRY( 37, 25)   DRY( 37, 26)   DRY( 37, 27)   
    DRY( 37, 28)   DRY( 37, 29)   DRY( 37, 30)   DRY( 37, 31)   DRY( 37, 32)   
    DRY( 37, 33)   DRY( 37, 34)   DRY( 37, 35)   DRY( 37, 36)   DRY( 37, 37)   
    DRY( 37, 38)   DRY( 37, 39)   DRY( 37, 40)   DRY( 37, 41)   DRY( 37, 42)   
    DRY( 37, 43)   DRY( 37, 44)   DRY( 37, 45)   DRY( 37, 46)   DRY( 37, 47)   
    DRY( 37, 48)   DRY( 37, 49)   DRY( 37, 50)   DRY( 37, 51)   DRY( 37, 52)   
    DRY( 37, 53)   DRY( 37, 54)   DRY( 37, 55)   DRY( 37, 56)   DRY( 37, 57)   
    DRY( 37, 58)   DRY( 37, 59)   DRY( 37, 60)   DRY( 37, 61)   DRY( 37, 62)   
    DRY( 37, 63)   DRY( 37, 64)   DRY( 37, 65)   DRY( 37, 66)   DRY( 37, 67)   
    DRY( 37, 68)   DRY( 37, 69)   DRY( 37, 70)   DRY( 37, 71)   DRY( 37, 72)   
    DRY( 37, 73)   DRY( 37, 74)   DRY( 37, 75)   DRY( 37, 76)   DRY( 37, 77)   
    DRY( 37, 78)   DRY( 37, 79)   DRY( 37, 80)   DRY( 37, 81)   DRY( 37, 82)   
    DRY( 37, 83)   DRY( 37, 84)   DRY( 37, 85)   DRY( 37, 86)   DRY( 37, 87)   
    DRY( 37, 88)   DRY( 37, 89)   DRY( 37, 90)   DRY( 37, 91)   DRY( 37, 92)   
    DRY( 37, 93)   DRY( 37, 94)   DRY( 37, 95)   DRY( 37, 96)   DRY( 37, 97)   
    DRY( 37, 98)   DRY( 37, 99)   DRY( 37,100)   DRY( 37,101)   DRY( 37,102)   
    DRY( 37,103)   DRY( 37,104)   DRY( 37,105)   DRY( 37,106)   DRY( 37,107)   
    DRY( 37,108)   DRY( 37,109)   DRY( 37,110)   DRY( 37,111)   DRY( 37,112)   
    DRY( 37,113)   DRY( 37,114)   DRY( 37,115)   DRY( 37,116)   DRY( 37,117)   
    DRY( 37,118)   DRY( 37,119)   DRY( 37,120)   DRY( 37,121)   DRY( 37,122)   
    DRY( 37,123)   DRY( 37,124)   DRY( 37,125)   DRY( 37,126)   DRY( 37,127)   
    DRY( 37,128)   DRY( 37,129)   DRY( 37,130)   DRY( 37,131)   DRY( 37,132)   
    DRY( 37,133)   DRY( 37,134)   DRY( 37,135)   DRY( 37,136)   DRY( 37,137)   
    DRY( 37,138)   DRY( 37,139)   DRY( 37,140)   DRY( 37,141)   DRY( 37,142)   
    DRY( 37,143)   DRY( 37,144)   DRY( 37,145)   DRY( 37,146)   DRY( 37,147)   
    DRY( 37,148)   DRY( 37,149)   DRY( 37,150)   DRY( 37,151)   DRY( 37,152)   
    DRY( 37,153)   DRY( 37,154)   DRY( 37,155)   DRY( 37,156)   DRY( 37,157)   
    DRY( 37,158)   DRY( 37,159)   DRY( 37,160)   DRY( 37,161)   DRY( 37,162)   
    DRY( 37,163)   DRY( 37,164)   DRY( 37,165)   DRY( 37,166)   DRY( 37,167)   
    DRY( 37,168)   DRY( 37,169)   DRY( 37,170)   DRY( 37,171)   DRY( 37,172)   
    DRY( 37,173)   DRY( 37,174)   DRY( 37,175)   DRY( 37,176)   DRY( 37,177)   
    DRY( 37,178)   DRY( 37,179)   DRY( 37,180)   DRY( 37,181)   DRY( 37,182)   
    DRY( 37,183)   DRY( 37,184)   DRY( 37,185)   DRY( 37,186)   DRY( 37,187)   
    DRY( 37,188)   DRY( 37,189)   DRY( 37,190)   DRY( 37,191)   DRY( 37,192)   
    DRY( 37,193)   DRY( 37,194)   DRY( 37,195)   DRY( 37,196)   DRY( 37,197)   
    DRY( 37,198)   DRY( 37,199)   DRY( 37,200)   DRY( 37,201)   DRY( 37,202)   
    DRY( 37,203)   DRY( 37,204)   DRY( 37,205)   DRY( 37,206)   DRY( 37,207)   
    DRY( 37,208)   DRY( 37,209)   DRY( 37,210)   DRY( 37,211)   DRY( 37,212)   
    DRY( 37,213)   DRY( 37,214)   DRY( 37,215)   DRY( 37,216)   DRY( 37,217)   
    DRY( 37,218)   DRY( 37,219)   DRY( 37,220)   DRY( 38,  1)   DRY( 38,  2)   
    DRY( 38,  3)   DRY( 38,  4)   DRY( 38,  5)   DRY( 38,  6)   DRY( 38,  7)   
    DRY( 38,  8)   DRY( 38,  9)   DRY( 38, 10)   DRY( 38, 11)   DRY( 38, 12)   
    DRY( 38, 13)   DRY( 38, 14)   DRY( 38, 15)   DRY( 38, 16)   DRY( 38, 17)   
    DRY( 38, 18)   DRY( 38, 19)   DRY( 38, 20)   DRY( 38, 21)   DRY( 38, 22)   
    DRY( 38, 23)   DRY( 38, 24)   DRY( 38, 25)   DRY( 38, 26)   DRY( 38, 27)   
    DRY( 38, 28)   DRY( 38, 29)   DRY( 38, 30)   DRY( 38, 31)   DRY( 38, 32)   
    DRY( 38, 33)   DRY( 38, 34)   DRY( 38, 35)   DRY( 38, 36)   DRY( 38, 37)   
    DRY( 38, 38)   DRY( 38, 39)   DRY( 38, 40)   DRY( 38, 41)   DRY( 38, 42)   
    DRY( 38, 43)   DRY( 38, 44)   DRY( 38, 45)   DRY( 38, 46)   DRY( 38, 47)   
    DRY( 38, 48)   DRY( 38, 49)   DRY( 38, 50)   DRY( 38, 51)   DRY( 38, 52)   
    DRY( 38, 53)   DRY( 38, 54)   DRY( 38, 55)   DRY( 38, 56)   DRY( 38, 57)   
    DRY( 38, 58)   DRY( 38, 59)   DRY( 38, 60)   DRY( 38, 61)   DRY( 38, 62)   
    DRY( 38, 63)   DRY( 38, 64)   DRY( 38, 65)   DRY( 38, 66)   DRY( 38, 67)   
    DRY( 38, 68)   DRY( 38, 69)   DRY( 38, 70)   DRY( 38, 71)   DRY( 38, 72)   
    DRY( 38, 73)   DRY( 38, 74)   DRY( 38, 75)   DRY( 38, 76)   DRY( 38, 77)   
    DRY( 38, 78)   DRY( 38, 79)   DRY( 38, 80)   DRY( 38, 81)   DRY( 38, 82)   
    DRY( 38, 83)   DRY( 38, 84)   DRY( 38, 85)   DRY( 38, 86)   DRY( 38, 87)   
    DRY( 38, 88)   DRY( 38, 89)   DRY( 38, 90)   DRY( 38, 91)   DRY( 38, 92)   
    DRY( 38, 93)   DRY( 38, 94)   DRY( 38, 95)   DRY( 38, 96)   DRY( 38, 97)   
    DRY( 38, 98)   DRY( 38, 99)   DRY( 38,100)   DRY( 38,101)   DRY( 38,102)   
    DRY( 38,103)   DRY( 38,104)   DRY( 38,105)   DRY( 38,106)   DRY( 38,107)   
    DRY( 38,108)   DRY( 38,109)   DRY( 38,110)   DRY( 38,111)   DRY( 38,112)   
    DRY( 38,113)   DRY( 38,114)   DRY( 38,115)   DRY( 38,116)   DRY( 38,117)   
    DRY( 38,118)   DRY( 38,119)   DRY( 38,120)   DRY( 38,121)   DRY( 38,122)   
    DRY( 38,123)   DRY( 38,124)   DRY( 38,125)   DRY( 38,126)   DRY( 38,127)   
    DRY( 38,128)   DRY( 38,129)   DRY( 38,130)   DRY( 38,131)   DRY( 38,132)   
    DRY( 38,133)   DRY( 38,134)   DRY( 38,135)   DRY( 38,136)   DRY( 38,137)   
    DRY( 38,138)   DRY( 38,139)   DRY( 38,140)   DRY( 38,141)   DRY( 38,142)   
    DRY( 38,143)   DRY( 38,144)   DRY( 38,145)   DRY( 38,146)   DRY( 38,147)   
    DRY( 38,148)   DRY( 38,149)   DRY( 38,150)   DRY( 38,151)   DRY( 38,152)   
    DRY( 38,153)   DRY( 38,154)   DRY( 38,155)   DRY( 38,156)   DRY( 38,157)   
    DRY( 38,158)   DRY( 38,159)   DRY( 38,160)   DRY( 38,161)   DRY( 38,162)   
    DRY( 38,163)   DRY( 38,164)   DRY( 38,165)   DRY( 38,166)   DRY( 38,167)   
    DRY( 38,168)   DRY( 38,169)   DRY( 38,170)   DRY( 38,171)   DRY( 38,172)   
    DRY( 38,173)   DRY( 38,174)   DRY( 38,175)   DRY( 38,176)   DRY( 38,177)   
    DRY( 38,178)   DRY( 38,179)   DRY( 38,180)   DRY( 38,181)   DRY( 38,182)   
    DRY( 38,183)   DRY( 38,184)   DRY( 38,185)   DRY( 38,186)   DRY( 38,187)   
    DRY( 38,188)   DRY( 38,189)   DRY( 38,190)   DRY( 38,191)   DRY( 38,192)   
    DRY( 38,193)   DRY( 38,194)   DRY( 38,195)   DRY( 38,196)   DRY( 38,197)   
    DRY( 38,198)   DRY( 38,199)   DRY( 38,200)   DRY( 38,201)   DRY( 38,202)   
    DRY( 38,203)   DRY( 38,204)   DRY( 38,205)   DRY( 38,206)   DRY( 38,207)   
    DRY( 38,208)   DRY( 38,209)   DRY( 38,210)   DRY( 38,211)   DRY( 38,212)   
    DRY( 38,213)   DRY( 38,214)   DRY( 38,215)   DRY( 38,216)   DRY( 38,217)   
    DRY( 38,218)   DRY( 38,219)   DRY( 38,220)   DRY( 39,  1)   DRY( 39,  2)   
    DRY( 39,  3)   DRY( 39,  4)   DRY( 39,  5)   DRY( 39,  6)   DRY( 39,  7)   
    DRY( 39,  8)   DRY( 39,  9)   DRY( 39, 10)   DRY( 39, 11)   DRY( 39, 12)   
    DRY( 39, 13)   DRY( 39, 14)   DRY( 39, 15)   DRY( 39, 16)   DRY( 39, 17)   
    DRY( 39, 18)   DRY( 39, 19)   DRY( 39, 20)   DRY( 39, 21)   DRY( 39, 22)   
    DRY( 39, 23)   DRY( 39, 24)   DRY( 39, 25)   DRY( 39, 26)   DRY( 39, 27)   
    DRY( 39, 28)   DRY( 39, 29)   DRY( 39, 30)   DRY( 39, 31)   DRY( 39, 32)   
    DRY( 39, 33)   DRY( 39, 34)   DRY( 39, 35)   DRY( 39, 36)   DRY( 39, 37)   
    DRY( 39, 38)   DRY( 39, 39)   DRY( 39, 40)   DRY( 39, 41)   DRY( 39, 42)   
    DRY( 39, 43)   DRY( 39, 44)   DRY( 39, 45)   DRY( 39, 46)   DRY( 39, 47)   
    DRY( 39, 48)   DRY( 39, 49)   DRY( 39, 50)   DRY( 39, 51)   DRY( 39, 52)   
    DRY( 39, 53)   DRY( 39, 54)   DRY( 39, 55)   DRY( 39, 56)   DRY( 39, 57)   
    DRY( 39, 58)   DRY( 39, 59)   DRY( 39, 60)   DRY( 39, 61)   DRY( 39, 62)   
    DRY( 39, 63)   DRY( 39, 64)   DRY( 39, 65)   DRY( 39, 66)   DRY( 39, 67)   
    DRY( 39, 68)   DRY( 39, 69)   DRY( 39, 70)   DRY( 39, 71)   DRY( 39, 72)   
    DRY( 39, 73)   DRY( 39, 74)   DRY( 39, 75)   DRY( 39, 76)   DRY( 39, 77)   
    DRY( 39, 78)   DRY( 39, 79)   DRY( 39, 80)   DRY( 39, 81)   DRY( 39, 82)   
    DRY( 39, 83)   DRY( 39, 84)   DRY( 39, 85)   DRY( 39, 86)   DRY( 39, 87)   
    DRY( 39, 88)   DRY( 39, 89)   DRY( 39, 90)   DRY( 39, 91)   DRY( 39, 92)   
    DRY( 39, 93)   DRY( 39, 94)   DRY( 39, 95)   DRY( 39, 96)   DRY( 39, 97)   
    DRY( 39, 98)   DRY( 39, 99)   DRY( 39,100)   DRY( 39,101)   DRY( 39,102)   
    DRY( 39,103)   DRY( 39,104)   DRY( 39,105)   DRY( 39,106)   DRY( 39,107)   
    DRY( 39,108)   DRY( 39,109)   DRY( 39,110)   DRY( 39,111)   DRY( 39,112)   
    DRY( 39,113)   DRY( 39,114)   DRY( 39,115)   DRY( 39,116)   DRY( 39,117)   
    DRY( 39,118)   DRY( 39,119)   DRY( 39,120)   DRY( 39,121)   DRY( 39,122)   
    DRY( 39,123)   DRY( 39,124)   DRY( 39,125)   DRY( 39,126)   DRY( 39,127)   
    DRY( 39,128)   DRY( 39,129)   DRY( 39,130)   DRY( 39,131)   DRY( 39,132)   
    DRY( 39,133)   DRY( 39,134)   DRY( 39,135)   DRY( 39,136)   DRY( 39,137)   
    DRY( 39,138)   DRY( 39,139)   DRY( 39,140)   DRY( 39,141)   DRY( 39,142)   
    DRY( 39,143)   DRY( 39,144)   DRY( 39,145)   DRY( 39,146)   DRY( 39,147)   
    DRY( 39,148)   DRY( 39,149)   DRY( 39,150)   DRY( 39,151)   DRY( 39,152)   
    DRY( 39,153)   DRY( 39,154)   DRY( 39,155)   DRY( 39,156)   DRY( 39,157)   
    DRY( 39,158)   DRY( 39,159)   DRY( 39,160)   DRY( 39,161)   DRY( 39,162)   
    DRY( 39,163)   DRY( 39,164)   DRY( 39,165)   DRY( 39,166)   DRY( 39,167)   
    DRY( 39,168)   DRY( 39,169)   DRY( 39,170)   DRY( 39,171)   DRY( 39,172)   
    DRY( 39,173)   DRY( 39,174)   DRY( 39,175)   DRY( 39,176)   DRY( 39,177)   
    DRY( 39,178)   DRY( 39,179)   DRY( 39,180)   DRY( 39,181)   DRY( 39,182)   
    DRY( 39,183)   DRY( 39,184)   DRY( 39,185)   DRY( 39,186)   DRY( 39,187)   
    DRY( 39,188)   DRY( 39,189)   DRY( 39,190)   DRY( 39,191)   DRY( 39,192)   
    DRY( 39,193)   DRY( 39,194)   DRY( 39,195)   DRY( 39,196)   DRY( 39,197)   
    DRY( 39,198)   DRY( 39,199)   DRY( 39,200)   DRY( 39,201)   DRY( 39,202)   
    DRY( 39,203)   DRY( 39,204)   DRY( 39,205)   DRY( 39,206)   DRY( 39,207)   
    DRY( 39,208)   DRY( 39,209)   DRY( 39,210)   DRY( 39,211)   DRY( 39,212)   
    DRY( 39,213)   DRY( 39,214)   DRY( 39,215)   DRY( 39,216)   DRY( 39,217)   
    DRY( 39,218)   DRY( 39,219)   DRY( 39,220)   DRY( 40,  1)   DRY( 40,  2)   
    DRY( 40,  3)   DRY( 40,  4)   DRY( 40,  5)   DRY( 40,  6)   DRY( 40,  7)   
    DRY( 40,  8)   DRY( 40,  9)   DRY( 40, 10)   DRY( 40, 11)   DRY( 40, 12)   
    DRY( 40, 13)   DRY( 40, 14)   DRY( 40, 15)   DRY( 40, 16)   DRY( 40, 17)   
    DRY( 40, 18)   DRY( 40, 19)   DRY( 40, 20)   DRY( 40, 21)   DRY( 40, 22)   
    DRY( 40, 23)   DRY( 40, 24)   DRY( 40, 25)   DRY( 40, 26)   DRY( 40, 27)   
    DRY( 40, 28)   DRY( 40, 29)   DRY( 40, 30)   DRY( 40, 31)   DRY( 40, 32)   
    DRY( 40, 33)   DRY( 40, 34)   DRY( 40, 35)   DRY( 40, 36)   DRY( 40, 37)   
    DRY( 40, 38)   DRY( 40, 39)   DRY( 40, 40)   DRY( 40, 41)   DRY( 40, 42)   
    DRY( 40, 43)   DRY( 40, 44)   DRY( 40, 45)   DRY( 40, 46)   DRY( 40, 47)   
    DRY( 40, 48)   DRY( 40, 49)   DRY( 40, 50)   DRY( 40, 51)   DRY( 40, 52)   
    DRY( 40, 53)   DRY( 40, 54)   DRY( 40, 55)   DRY( 40, 56)   DRY( 40, 57)   
    DRY( 40, 58)   DRY( 40, 59)   DRY( 40, 60)   DRY( 40, 61)   DRY( 40, 62)   
    DRY( 40, 63)   DRY( 40, 64)   DRY( 40, 65)   DRY( 40, 66)   DRY( 40, 67)   
    DRY( 40, 68)   DRY( 40, 69)   DRY( 40, 70)   DRY( 40, 71)   DRY( 40, 72)   
    DRY( 40, 73)   DRY( 40, 74)   DRY( 40, 75)   DRY( 40, 76)   DRY( 40, 77)   
    DRY( 40, 78)   DRY( 40, 79)   DRY( 40, 80)   DRY( 40, 81)   DRY( 40, 82)   
    DRY( 40, 83)   DRY( 40, 84)   DRY( 40, 85)   DRY( 40, 86)   DRY( 40, 87)   
    DRY( 40, 88)   DRY( 40, 89)   DRY( 40, 90)   DRY( 40, 91)   DRY( 40, 92)   
    DRY( 40, 93)   DRY( 40, 94)   DRY( 40, 95)   DRY( 40, 96)   DRY( 40, 97)   
    DRY( 40, 98)   DRY( 40, 99)   DRY( 40,100)   DRY( 40,101)   DRY( 40,102)   
    DRY( 40,103)   DRY( 40,104)   DRY( 40,105)   DRY( 40,106)   DRY( 40,107)   
    DRY( 40,108)   DRY( 40,109)   DRY( 40,110)   DRY( 40,111)   DRY( 40,112)   
    DRY( 40,113)   DRY( 40,114)   DRY( 40,115)   DRY( 40,116)   DRY( 40,117)   
    DRY( 40,118)   DRY( 40,119)   DRY( 40,120)   DRY( 40,121)   DRY( 40,122)   
    DRY( 40,123)   DRY( 40,124)   DRY( 40,125)   DRY( 40,126)   DRY( 40,127)   
    DRY( 40,128)   DRY( 40,129)   DRY( 40,130)   DRY( 40,131)   DRY( 40,132)   
    DRY( 40,133)   DRY( 40,134)   DRY( 40,135)   DRY( 40,136)   DRY( 40,137)   
    DRY( 40,138)   DRY( 40,139)   DRY( 40,140)   DRY( 40,141)   DRY( 40,142)   
    DRY( 40,143)   DRY( 40,144)   DRY( 40,145)   DRY( 40,146)   DRY( 40,147)   
    DRY( 40,148)   DRY( 40,149)   DRY( 40,150)   DRY( 40,151)   DRY( 40,152)   
    DRY( 40,153)   DRY( 40,154)   DRY( 40,155)   DRY( 40,156)   DRY( 40,157)   
    DRY( 40,158)   DRY( 40,159)   DRY( 40,160)   DRY( 40,161)   DRY( 40,162)   
    DRY( 40,163)   DRY( 40,164)   DRY( 40,165)   DRY( 40,166)   DRY( 40,167)   
    DRY( 40,168)   DRY( 40,169)   DRY( 40,170)   DRY( 40,171)   DRY( 40,172)   
    DRY( 40,173)   DRY( 40,174)   DRY( 40,175)   DRY( 40,176)   DRY( 40,177)   
    DRY( 40,178)   DRY( 40,179)   DRY( 40,180)   DRY( 40,181)   DRY( 40,182)   
    DRY( 40,183)   DRY( 40,184)   DRY( 40,185)   DRY( 40,186)   DRY( 40,187)   
    DRY( 40,188)   DRY( 40,189)   DRY( 40,190)   DRY( 40,191)   DRY( 40,192)   
    DRY( 40,193)   DRY( 40,194)   DRY( 40,195)   DRY( 40,196)   DRY( 40,197)   
    DRY( 40,198)   DRY( 40,199)   DRY( 40,200)   DRY( 40,201)   DRY( 40,202)   
    DRY( 40,203)   DRY( 40,204)   DRY( 40,205)   DRY( 40,206)   DRY( 40,207)   
    DRY( 40,208)   DRY( 40,209)   DRY( 40,210)   DRY( 40,211)   DRY( 40,212)   
    DRY( 40,213)   DRY( 40,214)   DRY( 40,215)   DRY( 40,216)   DRY( 40,217)   
    DRY( 40,218)   DRY( 40,219)   DRY( 40,220)   

 CELL CONVERSIONS FOR ITER.=  2  LAYER= 13  STEP=  1  PERIOD=   1   (ROW,COL)
    DRY( 30,  1)   DRY( 30,  2)   DRY( 30,  3)   DRY( 31,  1)   DRY( 31,  2)   
    DRY( 31,  3)   DRY( 31,  4)   DRY( 31,  5)   DRY( 32,  1)   DRY( 32,  2)   
    DRY( 32,  3)   DRY( 32,  4)   DRY( 32,  5)   DRY( 32,  6)   DRY( 32,  7)   
    DRY( 32,  8)   DRY( 32,  9)   DRY( 32, 10)   DRY( 33,  1)   DRY( 33,  2)   
    DRY( 33,  3)   DRY( 33,  4)   DRY( 33,  5)   DRY( 33,  6)   DRY( 33,  7)   
    DRY( 33,  8)   DRY( 33,  9)   DRY( 33, 10)   DRY( 33, 11)   DRY( 33, 12)   
    DRY( 33, 13)   DRY( 33, 14)   DRY( 33, 15)   DRY( 33, 16)   DRY( 33, 17)   
    DRY( 33, 33)   DRY( 33, 34)   DRY( 33, 35)   DRY( 33, 36)   DRY( 33, 37)   
    DRY( 33, 38)   DRY( 34,  1)   DRY( 34,  2)   DRY( 34,  3)   DRY( 34,  4)   
    DRY( 34,  5)   DRY( 34,  6)   DRY( 34,  7)   DRY( 34,  8)   DRY( 34,  9)   
    DRY( 34, 10)   DRY( 34, 11)   DRY( 34, 12)   DRY( 34, 13)   DRY( 34, 14)   
    DRY( 34, 15)   DRY( 34, 16)   DRY( 34, 17)   DRY( 34, 18)   DRY( 34, 19)   
    DRY( 34, 20)   DRY( 34, 21)   DRY( 34, 22)   DRY( 34, 23)   DRY( 34, 24)   
    DRY( 34, 25)   DRY( 34, 26)   DRY( 34, 27)   DRY( 34, 28)   DRY( 34, 29)   
    DRY( 34, 30)   DRY( 34, 31)   DRY( 34, 32)   DRY( 34, 33)   DRY( 34, 34)   
    DRY( 34, 35)   DRY( 34, 36)   DRY( 34, 37)   DRY( 34, 38)   DRY( 34, 39)   
    DRY( 34, 40)   DRY( 34, 41)   DRY( 34, 42)   DRY( 34, 43)   DRY( 34, 44)   
    DRY( 34, 45)   DRY( 34, 46)   DRY( 34, 47)   DRY( 34, 48)   DRY( 34, 49)   
    DRY( 34, 50)   DRY( 35,  1)   DRY( 35,  2)   DRY( 35,  3)   DRY( 35,  4)   
    DRY( 35,  5)   DRY( 35,  6)   DRY( 35,  7)   DRY( 35,  8)   DRY( 35,  9)   
    DRY( 35, 10)   DRY( 35, 11)   DRY( 35, 12)   DRY( 35, 13)   DRY( 35, 14)   
    DRY( 35, 15)   DRY( 35, 16)   DRY( 35, 17)   DRY( 35, 18)   DRY( 35, 19)   
    DRY( 35, 20)   DRY( 35, 21)   DRY( 35, 22)   DRY( 35, 23)   DRY( 35, 24)   
    DRY( 35, 25)   DRY( 35, 26)   DRY( 35, 27)   DRY( 35, 28)   DRY( 35, 29)   
    DRY( 35, 30)   DRY( 35, 31)   DRY( 35, 32)   DRY( 35, 33)   DRY( 35, 34)   
    DRY( 35, 35)   DRY( 35, 36)   DRY( 35, 37)   DRY( 35, 38)   DRY( 35, 39)   
    DRY( 35, 40)   DRY( 35, 41)   DRY( 35, 42)   DRY( 35, 43)   DRY( 35, 44)   
    DRY( 35, 45)   DRY( 35, 46)   DRY( 35, 47)   DRY( 35, 48)   DRY( 35, 49)   
    DRY( 35, 50)   DRY( 35, 51)   DRY( 35, 52)   DRY( 35, 53)   DRY( 35, 54)   
    DRY( 35, 55)   DRY( 35, 56)   DRY( 35, 57)   DRY( 35, 75)   DRY( 35, 76)   
    DRY( 35, 77)   DRY( 35, 78)   DRY( 35, 79)   DRY( 35, 80)   DRY( 35, 81)   
    DRY( 35, 82)   DRY( 35, 83)   DRY( 35, 84)   DRY( 35, 85)   DRY( 35, 86)   
    DRY( 35, 87)   DRY( 35, 88)   DRY( 35, 89)   DRY( 35, 90)   DRY( 35, 91)   
    DRY( 35, 92)   DRY( 35, 93)   DRY( 35, 94)   DRY( 35, 95)   DRY( 35, 96)   
    DRY( 35, 97)   DRY( 35, 98)   DRY( 35, 99)   DRY( 35,100)   DRY( 35,101)   
    DRY( 35,102)   DRY( 35,103)   DRY( 35,104)   DRY( 35,105)   DRY( 35,106)   
    DRY( 35,107)   DRY( 35,108)   DRY( 35,109)   DRY( 35,110)   DRY( 35,111)   
    DRY( 35,112)   DRY( 35,113)   DRY( 36,  1)   DRY( 36,  2)   DRY( 36,  3)   
    DRY( 36,  4)   DRY( 36,  5)   DRY( 36,  6)   DRY( 36,  7)   DRY( 36,  8)   
    DRY( 36,  9)   DRY( 36, 10)   DRY( 36, 11)   DRY( 36, 12)   DRY( 36, 13)   
    DRY( 36, 14)   DRY( 36, 15)   DRY( 36, 16)   DRY( 36, 17)   DRY( 36, 18)   
    DRY( 36, 19)   DRY( 36, 20)   DRY( 36, 21)   DRY( 36, 22)   DRY( 36, 23)   
    DRY( 36, 24)   DRY( 36, 25)   DRY( 36, 26)   DRY( 36, 27)   DRY( 36, 28)   
    DRY( 36, 29)   DRY( 36, 30)   DRY( 36, 31)   DRY( 36, 32)   DRY( 36, 33)   
    DRY( 36, 34)   DRY( 36, 35)   DRY( 36, 36)   DRY( 36, 37)   DRY( 36, 38)   
    DRY( 36, 39)   DRY( 36, 40)   DRY( 36, 41)   DRY( 36, 42)   DRY( 36, 43)   
    DRY( 36, 44)   DRY( 36, 45)   DRY( 36, 46)   DRY( 36, 47)   DRY( 36, 48)   
    DRY( 36, 49)   DRY( 36, 50)   DRY( 36, 51)   DRY( 36, 52)   DRY( 36, 53)   
    DRY( 36, 54)   DRY( 36, 55)   DRY( 36, 56)   DRY( 36, 57)   DRY( 36, 58)   
    DRY( 36, 59)   DRY( 36, 60)   DRY( 36, 61)   DRY( 36, 62)   DRY( 36, 63)   
    DRY( 36, 64)   DRY( 36, 65)   DRY( 36, 66)   DRY( 36, 67)   DRY( 36, 68)   
    DRY( 36, 69)   DRY( 36, 70)   DRY( 36, 71)   DRY( 36, 72)   DRY( 36, 73)   
    DRY( 36, 74)   DRY( 36, 75)   DRY( 36, 76)   DRY( 36, 77)   DRY( 36, 78)   
    DRY( 36, 79)   DRY( 36, 80)   DRY( 36, 81)   DRY( 36, 82)   DRY( 36, 83)   
    DRY( 36, 84)   DRY( 36, 85)   DRY( 36, 86)   DRY( 36, 87)   DRY( 36, 88)   
    DRY( 36, 89)   DRY( 36, 90)   DRY( 36, 91)   DRY( 36, 92)   DRY( 36, 93)   
    DRY( 36, 94)   DRY( 36, 95)   DRY( 36, 96)   DRY( 36, 97)   DRY( 36, 98)   
    DRY( 36, 99)   DRY( 36,100)   DRY( 36,101)   DRY( 36,102)   DRY( 36,103)   
    DRY( 36,104)   DRY( 36,105)   DRY( 36,106)   DRY( 36,107)   DRY( 36,108)   
    DRY( 36,109)   DRY( 36,110)   DRY( 36,111)   DRY( 36,112)   DRY( 36,113)   
    DRY( 36,114)   DRY( 36,115)   DRY( 36,116)   DRY( 36,117)   DRY( 36,118)   
    DRY( 36,119)   DRY( 36,120)   DRY( 36,121)   DRY( 36,122)   DRY( 36,123)   
    DRY( 36,124)   DRY( 36,125)   DRY( 36,126)   DRY( 36,208)   DRY( 36,209)   
    DRY( 36,210)   DRY( 36,211)   DRY( 37,  1)   DRY( 37,  2)   DRY( 37,  3)   
    DRY( 37,  4)   DRY( 37,  5)   DRY( 37,  6)   DRY( 37,  7)   DRY( 37,  8)   
    DRY( 37,  9)   DRY( 37, 10)   DRY( 37, 11)   DRY( 37, 12)   DRY( 37, 13)   
    DRY( 37, 14)   DRY( 37, 15)   DRY( 37, 16)   DRY( 37, 17)   DRY( 37, 18)   
    DRY( 37, 19)   DRY( 37, 20)   DRY( 37, 21)   DRY( 37, 22)   DRY( 37, 23)   
    DRY( 37, 24)   DRY( 37, 25)   DRY( 37, 26)   DRY( 37, 27)   DRY( 37, 28)   
    DRY( 37, 29)   DRY( 37, 30)   DRY( 37, 31)   DRY( 37, 32)   DRY( 37, 33)   
    DRY( 37, 34)   DRY( 37, 35)   DRY( 37, 36)   DRY( 37, 37)   DRY( 37, 38)   
    DRY( 37, 39)   DRY( 37, 40)   DRY( 37, 41)   DRY( 37, 42)   DRY( 37, 43)   
    DRY( 37, 44)   DRY( 37, 45)   DRY( 37, 46)   DRY( 37, 47)   DRY( 37, 48)   
    DRY( 37, 49)   DRY( 37, 50)   DRY( 37, 51)   DRY( 37, 52)   DRY( 37, 53)   
    DRY( 37, 54)   DRY( 37, 55)   DRY( 37, 56)   DRY( 37, 57)   DRY( 37, 58)   
    DRY( 37, 59)   DRY( 37, 60)   DRY( 37, 61)   DRY( 37, 62)   DRY( 37, 63)   
    DRY( 37, 64)   DRY( 37, 65)   DRY( 37, 66)   DRY( 37, 67)   DRY( 37, 68)   
    DRY( 37, 69)   DRY( 37, 70)   DRY( 37, 71)   DRY( 37, 72)   DRY( 37, 73)   
    DRY( 37, 74)   DRY( 37, 75)   DRY( 37, 76)   DRY( 37, 77)   DRY( 37, 78)   
    DRY( 37, 79)   DRY( 37, 80)   DRY( 37, 81)   DRY( 37, 82)   DRY( 37, 83)   
    DRY( 37, 84)   DRY( 37, 85)   DRY( 37, 86)   DRY( 37, 87)   DRY( 37, 88)   
    DRY( 37, 89)   DRY( 37, 90)   DRY( 37, 91)   DRY( 37, 92)   DRY( 37, 93)   
    DRY( 37, 94)   DRY( 37, 95)   DRY( 37, 96)   DRY( 37, 97)   DRY( 37, 98)   
    DRY( 37, 99)   DRY( 37,100)   DRY( 37,101)   DRY( 37,102)   DRY( 37,103)   
    DRY( 37,104)   DRY( 37,105)   DRY( 37,106)   DRY( 37,107)   DRY( 37,108)   
    DRY( 37,109)   DRY( 37,110)   DRY( 37,111)   DRY( 37,112)   DRY( 37,113)   
    DRY( 37,114)   DRY( 37,115)   DRY( 37,116)   DRY( 37,117)   DRY( 37,118)   
    DRY( 37,119)   DRY( 37,120)   DRY( 37,121)   DRY( 37,122)   DRY( 37,123)   
    DRY( 37,124)   DRY( 37,125)   DRY( 37,126)   DRY( 37,127)   DRY( 37,128)   
    DRY( 37,129)   DRY( 37,130)   DRY( 37,131)   DRY( 37,132)   DRY( 37,133)   
    DRY( 37,134)   DRY( 37,135)   DRY( 37,136)   DRY( 37,137)   DRY( 37,138)   
    DRY( 37,139)   DRY( 37,140)   DRY( 37,141)   DRY( 37,142)   DRY( 37,143)   
    DRY( 37,144)   DRY( 37,145)   DRY( 37,146)   DRY( 37,147)   DRY( 37,148)   
    DRY( 37,149)   DRY( 37,150)   DRY( 37,151)   DRY( 37,152)   DRY( 37,153)   
    DRY( 37,154)   DRY( 37,155)   DRY( 37,156)   DRY( 37,157)   DRY( 37,158)   
    DRY( 37,159)   DRY( 37,160)   DRY( 37,161)   DRY( 37,162)   DRY( 37,163)   
    DRY( 37,164)   DRY( 37,165)   DRY( 37,166)   DRY( 37,167)   DRY( 37,168)   
    DRY( 37,169)   DRY( 37,170)   DRY( 37,171)   DRY( 37,172)   DRY( 37,173)   
    DRY( 37,174)   DRY( 37,175)   DRY( 37,176)   DRY( 37,177)   DRY( 37,178)   
    DRY( 37,179)   DRY( 37,180)   DRY( 37,181)   DRY( 37,182)   DRY( 37,183)   
    DRY( 37,184)   DRY( 37,185)   DRY( 37,186)   DRY( 37,195)   DRY( 37,196)   
    DRY( 37,197)   DRY( 37,198)   DRY( 37,199)   DRY( 37,200)   DRY( 37,205)   
    DRY( 37,206)   DRY( 37,207)   DRY( 37,208)   DRY( 37,209)   DRY( 37,210)   
    DRY( 37,211)   DRY( 37,212)   DRY( 37,213)   DRY( 38,  1)   DRY( 38,  2)   
    DRY( 38,  3)   DRY( 38,  4)   DRY( 38,  5)   DRY( 38,  6)   DRY( 38,  7)   
    DRY( 38,  8)   DRY( 38,  9)   DRY( 38, 10)   DRY( 38, 11)   DRY( 38, 12)   
    DRY( 38, 13)   DRY( 38, 14)   DRY( 38, 15)   DRY( 38, 16)   DRY( 38, 17)   
    DRY( 38, 18)   DRY( 38, 19)   DRY( 38, 20)   DRY( 38, 21)   DRY( 38, 22)   
    DRY( 38, 23)   DRY( 38, 24)   DRY( 38, 25)   DRY( 38, 26)   DRY( 38, 27)   
    DRY( 38, 28)   DRY( 38, 29)   DRY( 38, 30)   DRY( 38, 31)   DRY( 38, 32)   
    DRY( 38, 33)   DRY( 38, 34)   DRY( 38, 35)   DRY( 38, 36)   DRY( 38, 37)   
    DRY( 38, 38)   DRY( 38, 39)   DRY( 38, 40)   DRY( 38, 41)   DRY( 38, 42)   
    DRY( 38, 43)   DRY( 38, 44)   DRY( 38, 45)   DRY( 38, 46)   DRY( 38, 47)   
    DRY( 38, 48)   DRY( 38, 49)   DRY( 38, 50)   DRY( 38, 51)   DRY( 38, 52)   
    DRY( 38, 53)   DRY( 38, 54)   DRY( 38, 55)   DRY( 38, 56)   DRY( 38, 57)   
    DRY( 38, 58)   DRY( 38, 59)   DRY( 38, 60)   DRY( 38, 61)   DRY( 38, 62)   
    DRY( 38, 63)   DRY( 38, 64)   DRY( 38, 65)   DRY( 38, 66)   DRY( 38, 67)   
    DRY( 38, 68)   DRY( 38, 69)   DRY( 38, 70)   DRY( 38, 71)   DRY( 38, 72)   
    DRY( 38, 73)   DRY( 38, 74)   DRY( 38, 75)   DRY( 38, 76)   DRY( 38, 77)   
    DRY( 38, 78)   DRY( 38, 79)   DRY( 38, 80)   DRY( 38, 81)   DRY( 38, 82)   
    DRY( 38, 83)   DRY( 38, 84)   DRY( 38, 85)   DRY( 38, 86)   DRY( 38, 87)   
    DRY( 38, 88)   DRY( 38, 89)   DRY( 38, 90)   DRY( 38, 91)   DRY( 38, 92)   
    DRY( 38, 93)   DRY( 38, 94)   DRY( 38, 95)   DRY( 38, 96)   DRY( 38, 97)   
    DRY( 38, 98)   DRY( 38, 99)   DRY( 38,100)   DRY( 38,101)   DRY( 38,102)   
    DRY( 38,103)   DRY( 38,104)   DRY( 38,105)   DRY( 38,106)   DRY( 38,107)   
    DRY( 38,108)   DRY( 38,109)   DRY( 38,110)   DRY( 38,111)   DRY( 38,112)   
    DRY( 38,113)   DRY( 38,114)   DRY( 38,115)   DRY( 38,116)   DRY( 38,117)   
    DRY( 38,118)   DRY( 38,119)   DRY( 38,120)   DRY( 38,121)   DRY( 38,122)   
    DRY( 38,123)   DRY( 38,124)   DRY( 38,125)   DRY( 38,126)   DRY( 38,127)   
    DRY( 38,128)   DRY( 38,129)   DRY( 38,130)   DRY( 38,131)   DRY( 38,132)   
    DRY( 38,133)   DRY( 38,134)   DRY( 38,135)   DRY( 38,136)   DRY( 38,137)   
    DRY( 38,138)   DRY( 38,139)   DRY( 38,140)   DRY( 38,141)   DRY( 38,142)   
    DRY( 38,143)   DRY( 38,144)   DRY( 38,145)   DRY( 38,146)   DRY( 38,147)   
    DRY( 38,148)   DRY( 38,149)   DRY( 38,150)   DRY( 38,151)   DRY( 38,152)   
    DRY( 38,153)   DRY( 38,154)   DRY( 38,155)   DRY( 38,156)   DRY( 38,157)   
    DRY( 38,158)   DRY( 38,159)   DRY( 38,160)   DRY( 38,161)   DRY( 38,162)   
    DRY( 38,163)   DRY( 38,164)   DRY( 38,165)   DRY( 38,166)   DRY( 38,167)   
    DRY( 38,168)   DRY( 38,169)   DRY( 38,170)   DRY( 38,171)   DRY( 38,172)   
    DRY( 38,173)   DRY( 38,174)   DRY( 38,175)   DRY( 38,176)   DRY( 38,177)   
    DRY( 38,178)   DRY( 38,179)   DRY( 38,180)   DRY( 38,181)   DRY( 38,182)   
    DRY( 38,183)   DRY( 38,184)   DRY( 38,185)   DRY( 38,186)   DRY( 38,187)   
    DRY( 38,188)   DRY( 38,189)   DRY( 38,190)   DRY( 38,191)   DRY( 38,192)   
    DRY( 38,193)   DRY( 38,194)   DRY( 38,195)   DRY( 38,196)   DRY( 38,197)   
    DRY( 38,198)   DRY( 38,199)   DRY( 38,200)   DRY( 38,201)   DRY( 38,202)   
    DRY( 38,203)   DRY( 38,204)   DRY( 38,205)   DRY( 38,206)   DRY( 38,207)   
    DRY( 38,208)   DRY( 38,209)   DRY( 38,210)   DRY( 38,211)   DRY( 38,212)   
    DRY( 38,213)   DRY( 38,214)   DRY( 38,215)   DRY( 39,  1)   DRY( 39,  2)   
    DRY( 39,  3)   DRY( 39,  4)   DRY( 39,  5)   DRY( 39,  6)   DRY( 39,  7)   
    DRY( 39,  8)   DRY( 39,  9)   DRY( 39, 10)   DRY( 39, 11)   DRY( 39, 12)   
    DRY( 39, 13)   DRY( 39, 14)   DRY( 39, 15)   DRY( 39, 16)   DRY( 39, 17)   
    DRY( 39, 18)   DRY( 39, 19)   DRY( 39, 20)   DRY( 39, 21)   DRY( 39, 22)   
    DRY( 39, 23)   DRY( 39, 24)   DRY( 39, 25)   DRY( 39, 26)   DRY( 39, 27)   
    DRY( 39, 28)   DRY( 39, 29)   DRY( 39, 30)   DRY( 39, 31)   DRY( 39, 32)   
    DRY( 39, 33)   DRY( 39, 34)   DRY( 39, 35)   DRY( 39, 36)   DRY( 39, 37)   
    DRY( 39, 38)   DRY( 39, 39)   DRY( 39, 40)   DRY( 39, 41)   DRY( 39, 42)   
    DRY( 39, 43)   DRY( 39, 44)   DRY( 39, 45)   DRY( 39, 46)   DRY( 39, 47)   
    DRY( 39, 48)   DRY( 39, 49)   DRY( 39, 50)   DRY( 39, 51)   DRY( 39, 52)   
    DRY( 39, 53)   DRY( 39, 54)   DRY( 39, 55)   DRY( 39, 56)   DRY( 39, 57)   
    DRY( 39, 58)   DRY( 39, 59)   DRY( 39, 60)   DRY( 39, 61)   DRY( 39, 62)   
    DRY( 39, 63)   DRY( 39, 64)   DRY( 39, 65)   DRY( 39, 66)   DRY( 39, 67)   
    DRY( 39, 68)   DRY( 39, 69)   DRY( 39, 70)   DRY( 39, 71)   DRY( 39, 72)   
    DRY( 39, 73)   DRY( 39, 74)   DRY( 39, 75)   DRY( 39, 76)   DRY( 39, 77)   
    DRY( 39, 78)   DRY( 39, 79)   DRY( 39, 80)   DRY( 39, 81)   DRY( 39, 82)   
    DRY( 39, 83)   DRY( 39, 84)   DRY( 39, 85)   DRY( 39, 86)   DRY( 39, 87)   
    DRY( 39, 88)   DRY( 39, 89)   DRY( 39, 90)   DRY( 39, 91)   DRY( 39, 92)   
    DRY( 39, 93)   DRY( 39, 94)   DRY( 39, 95)   DRY( 39, 96)   DRY( 39, 97)   
    DRY( 39, 98)   DRY( 39, 99)   DRY( 39,100)   DRY( 39,101)   DRY( 39,102)   
    DRY( 39,103)   DRY( 39,104)   DRY( 39,105)   DRY( 39,106)   DRY( 39,107)   
    DRY( 39,108)   DRY( 39,109)   DRY( 39,110)   DRY( 39,111)   DRY( 39,112)   
    DRY( 39,113)   DRY( 39,114)   DRY( 39,115)   DRY( 39,116)   DRY( 39,117)   
    DRY( 39,118)   DRY( 39,119)   DRY( 39,120)   DRY( 39,121)   DRY( 39,122)   
    DRY( 39,123)   DRY( 39,124)   DRY( 39,125)   DRY( 39,126)   DRY( 39,127)   
    DRY( 39,128)   DRY( 39,129)   DRY( 39,130)   DRY( 39,131)   DRY( 39,132)   
    DRY( 39,133)   DRY( 39,134)   DRY( 39,135)   DRY( 39,136)   DRY( 39,137)   
    DRY( 39,138)   DRY( 39,139)   DRY( 39,140)   DRY( 39,141)   DRY( 39,142)   
    DRY( 39,143)   DRY( 39,144)   DRY( 39,145)   DRY( 39,146)   DRY( 39,147)   
    DRY( 39,148)   DRY( 39,149)   DRY( 39,150)   DRY( 39,151)   DRY( 39,152)   
    DRY( 39,153)   DRY( 39,154)   DRY( 39,155)   DRY( 39,156)   DRY( 39,157)   
    DRY( 39,158)   DRY( 39,159)   DRY( 39,160)   DRY( 39,161)   DRY( 39,162)   
    DRY( 39,163)   DRY( 39,164)   DRY( 39,165)   DRY( 39,166)   DRY( 39,167)   
    DRY( 39,168)   DRY( 39,169)   DRY( 39,170)   DRY( 39,171)   DRY( 39,172)   
    DRY( 39,173)   DRY( 39,174)   DRY( 39,175)   DRY( 39,176)   DRY( 39,177)   
    DRY( 39,178)   DRY( 39,179)   DRY( 39,180)   DRY( 39,181)   DRY( 39,182)   
    DRY( 39,183)   DRY( 39,184)   DRY( 39,185)   DRY( 39,186)   DRY( 39,187)   
    DRY( 39,188)   DRY( 39,189)   DRY( 39,190)   DRY( 39,191)   DRY( 39,192)   
    DRY( 39,193)   DRY( 39,194)   DRY( 39,195)   DRY( 39,196)   DRY( 39,197)   
    DRY( 39,198)   DRY( 39,199)   DRY( 39,200)   DRY( 39,201)   DRY( 39,202)   
    DRY( 39,203)   DRY( 39,204)   DRY( 39,205)   DRY( 39,206)   DRY( 39,207)   
    DRY( 39,208)   DRY( 39,209)   DRY( 39,210)   DRY( 39,211)   DRY( 39,212)   
    DRY( 39,213)   DRY( 39,214)   DRY( 39,215)   DRY( 39,216)   DRY( 40,  1)   
    DRY( 40,  2)   DRY( 40,  3)   DRY( 40,  4)   DRY( 40,  5)   DRY( 40,  6)   
    DRY( 40,  7)   DRY( 40,  8)   DRY( 40,  9)   DRY( 40, 10)   DRY( 40, 11)   
    DRY( 40, 12)   DRY( 40, 13)   DRY( 40, 14)   DRY( 40, 15)   DRY( 40, 16)   
    DRY( 40, 17)   DRY( 40, 18)   DRY( 40, 19)   DRY( 40, 20)   DRY( 40, 21)   
    DRY( 40, 22)   DRY( 40, 23)   DRY( 40, 24)   DRY( 40, 25)   DRY( 40, 26)   
    DRY( 40, 27)   DRY( 40, 28)   DRY( 40, 29)   DRY( 40, 30)   DRY( 40, 31)   
    DRY( 40, 32)   DRY( 40, 33)   DRY( 40, 34)   DRY( 40, 35)   DRY( 40, 36)   
    DRY( 40, 37)   DRY( 40, 38)   DRY( 40, 39)   DRY( 40, 40)   DRY( 40, 41)   
    DRY( 40, 42)   DRY( 40, 43)   DRY( 40, 44)   DRY( 40, 45)   DRY( 40, 46)   
    DRY( 40, 47)   DRY( 40, 48)   DRY( 40, 49)   DRY( 40, 50)   DRY( 40, 51)   
    DRY( 40, 52)   DRY( 40, 53)   DRY( 40, 54)   DRY( 40, 55)   DRY( 40, 56)   
    DRY( 40, 57)   DRY( 40, 58)   DRY( 40, 59)   DRY( 40, 60)   DRY( 40, 61)   
    DRY( 40, 62)   DRY( 40, 63)   DRY( 40, 64)   DRY( 40, 65)   DRY( 40, 66)   
    DRY( 40, 67)   DRY( 40, 68)   DRY( 40, 69)   DRY( 40, 70)   DRY( 40, 71)   
    DRY( 40, 72)   DRY( 40, 73)   DRY( 40, 74)   DRY( 40, 75)   DRY( 40, 76)   
    DRY( 40, 77)   DRY( 40, 78)   DRY( 40, 79)   DRY( 40, 80)   DRY( 40, 81)   
    DRY( 40, 82)   DRY( 40, 83)   DRY( 40, 84)   DRY( 40, 85)   DRY( 40, 86)   
    DRY( 40, 87)   DRY( 40, 88)   DRY( 40, 89)   DRY( 40, 90)   DRY( 40, 91)   
    DRY( 40, 92)   DRY( 40, 93)   DRY( 40, 94)   DRY( 40, 95)   DRY( 40, 96)   
    DRY( 40, 97)   DRY( 40, 98)   DRY( 40, 99)   DRY( 40,100)   DRY( 40,101)   
    DRY( 40,102)   DRY( 40,103)   DRY( 40,104)   DRY( 40,105)   DRY( 40,106)   
    DRY( 40,107)   DRY( 40,108)   DRY( 40,109)   DRY( 40,110)   DRY( 40,111)   
    DRY( 40,112)   DRY( 40,113)   DRY( 40,114)   DRY( 40,115)   DRY( 40,116)   
    DRY( 40,117)   DRY( 40,118)   DRY( 40,119)   DRY( 40,120)   DRY( 40,121)   
    DRY( 40,122)   DRY( 40,123)   DRY( 40,124)   DRY( 40,125)   DRY( 40,126)   
    DRY( 40,127)   DRY( 40,128)   DRY( 40,129)   DRY( 40,130)   DRY( 40,131)   
    DRY( 40,132)   DRY( 40,133)   DRY( 40,134)   DRY( 40,135)   DRY( 40,136)   
    DRY( 40,137)   DRY( 40,138)   DRY( 40,139)   DRY( 40,140)   DRY( 40,141)   
    DRY( 40,142)   DRY( 40,143)   DRY( 40,144)   DRY( 40,145)   DRY( 40,146)   
    DRY( 40,147)   DRY( 40,148)   DRY( 40,149)   DRY( 40,150)   DRY( 40,151)   
    DRY( 40,152)   DRY( 40,153)   DRY( 40,154)   DRY( 40,155)   DRY( 40,156)   
    DRY( 40,157)   DRY( 40,158)   DRY( 40,159)   DRY( 40,160)   DRY( 40,161)   
    DRY( 40,162)   DRY( 40,163)   DRY( 40,164)   DRY( 40,165)   DRY( 40,166)   
    DRY( 40,167)   DRY( 40,168)   DRY( 40,169)   DRY( 40,170)   DRY( 40,171)   
    DRY( 40,172)   DRY( 40,173)   DRY( 40,174)   DRY( 40,175)   DRY( 40,176)   
    DRY( 40,177)   DRY( 40,178)   DRY( 40,179)   DRY( 40,180)   DRY( 40,181)   
    DRY( 40,182)   DRY( 40,183)   DRY( 40,184)   DRY( 40,185)   DRY( 40,186)   
    DRY( 40,187)   DRY( 40,188)   DRY( 40,189)   DRY( 40,190)   DRY( 40,191)   
    DRY( 40,192)   DRY( 40,193)   DRY( 40,194)   DRY( 40,195)   DRY( 40,196)   
    DRY( 40,197)   DRY( 40,198)   DRY( 40,199)   DRY( 40,200)   DRY( 40,201)   
    DRY( 40,202)   DRY( 40,203)   DRY( 40,204)   DRY( 40,205)   DRY( 40,206)   
    DRY( 40,207)   DRY( 40,208)   DRY( 40,209)   DRY( 40,210)   DRY( 40,211)   
    DRY( 40,212)   DRY( 40,213)   DRY( 40,214)   DRY( 40,215)   DRY( 40,216)   
    DRY( 40,217)   DRY( 40,218)   DRY( 41,  1)   DRY( 41,  2)   DRY( 41,  3)   
    DRY( 41,  4)   DRY( 41,  5)   DRY( 41,  6)   DRY( 41,  7)   DRY( 41,  8)   
    DRY( 41,  9)   DRY( 41, 10)   DRY( 41, 11)   DRY( 41, 12)   DRY( 41, 13)   
    DRY( 41, 14)   DRY( 41, 15)   DRY( 41, 16)   DRY( 41, 17)   DRY( 41, 18)   
    DRY( 41, 19)   DRY( 41, 20)   DRY( 41, 21)   DRY( 41, 22)   DRY( 41, 23)   
    DRY( 41, 24)   DRY( 41, 25)   DRY( 41, 26)   DRY( 41, 27)   DRY( 41, 28)   
    DRY( 41, 29)   DRY( 41, 30)   DRY( 41, 31)   DRY( 41, 32)   DRY( 41, 33)   
    DRY( 41, 34)   DRY( 41, 35)   DRY( 41, 36)   DRY( 41, 37)   DRY( 41, 38)   
    DRY( 41, 39)   DRY( 41, 40)   DRY( 41, 41)   DRY( 41, 42)   DRY( 41, 43)   
    DRY( 41, 44)   DRY( 41, 45)   DRY( 41, 46)   DRY( 41, 47)   DRY( 41, 48)   
    DRY( 41, 49)   DRY( 41, 50)   DRY( 41, 51)   DRY( 41, 52)   DRY( 41, 53)   
    DRY( 41, 54)   DRY( 41, 55)   DRY( 41, 56)   DRY( 41, 57)   DRY( 41, 58)   
    DRY( 41, 59)   DRY( 41, 60)   DRY( 41, 61)   DRY( 41, 62)   DRY( 41, 63)   
    DRY( 41, 64)   DRY( 41, 65)   DRY( 41, 66)   DRY( 41, 67)   DRY( 41, 68)   
    DRY( 41, 69)   DRY( 41, 70)   DRY( 41, 71)   DRY( 41, 72)   DRY( 41, 73)   
    DRY( 41, 74)   DRY( 41, 75)   DRY( 41, 76)   DRY( 41, 77)   DRY( 41, 78)   
    DRY( 41, 79)   DRY( 41, 80)   DRY( 41, 81)   DRY( 41, 82)   DRY( 41, 83)   
    DRY( 41, 84)   DRY( 41, 85)   DRY( 41, 86)   DRY( 41, 87)   DRY( 41, 88)   
    DRY( 41, 89)   DRY( 41, 90)   DRY( 41, 91)   DRY( 41, 92)   DRY( 41, 93)   
    DRY( 41, 94)   DRY( 41, 95)   DRY( 41, 96)   DRY( 41, 97)   DRY( 41, 98)   
    DRY( 41, 99)   DRY( 41,100)   DRY( 41,101)   DRY( 41,102)   DRY( 41,103)   
    DRY( 41,104)   DRY( 41,105)   DRY( 41,106)   DRY( 41,107)   DRY( 41,108)   
    DRY( 41,109)   DRY( 41,110)   DRY( 41,111)   DRY( 41,112)   DRY( 41,113)   
    DRY( 41,114)   DRY( 41,115)   DRY( 41,116)   DRY( 41,117)   DRY( 41,118)   
    DRY( 41,119)   DRY( 41,120)   DRY( 41,121)   DRY( 41,122)   DRY( 41,123)   
    DRY( 41,124)   DRY( 41,125)   DRY( 41,126)   DRY( 41,127)   DRY( 41,128)   
    DRY( 41,129)   DRY( 41,130)   DRY( 41,131)   DRY( 41,132)   DRY( 41,133)   
    DRY( 41,134)   DRY( 41,135)   DRY( 41,136)   DRY( 41,137)   DRY( 41,138)   
    DRY( 41,139)   DRY( 41,140)   DRY( 41,141)   DRY( 41,142)   DRY( 41,143)   
    DRY( 41,144)   DRY( 41,145)   DRY( 41,146)   DRY( 41,147)   DRY( 41,148)   
    DRY( 41,149)   DRY( 41,150)   DRY( 41,151)   DRY( 41,152)   DRY( 41,153)   
    DRY( 41,154)   DRY( 41,155)   DRY( 41,156)   DRY( 41,157)   DRY( 41,158)   
    DRY( 41,159)   DRY( 41,160)   DRY( 41,161)   DRY( 41,162)   DRY( 41,163)   
    DRY( 41,164)   DRY( 41,165)   DRY( 41,166)   DRY( 41,167)   DRY( 41,168)   
    DRY( 41,169)   DRY( 41,170)   DRY( 41,171)   DRY( 41,172)   DRY( 41,173)   
    DRY( 41,174)   DRY( 41,175)   DRY( 41,176)   DRY( 41,177)   DRY( 41,178)   
    DRY( 41,179)   DRY( 41,180)   DRY( 41,181)   DRY( 41,182)   DRY( 41,183)   
    DRY( 41,184)   DRY( 41,185)   DRY( 41,186)   DRY( 41,187)   DRY( 41,188)   
    DRY( 41,189)   DRY( 41,190)   DRY( 41,191)   DRY( 41,192)   DRY( 41,193)   
    DRY( 41,194)   DRY( 41,195)   DRY( 41,196)   DRY( 41,197)   DRY( 41,198)   
    DRY( 41,199)   DRY( 41,200)   DRY( 41,201)   DRY( 41,202)   DRY( 41,203)   
    DRY( 41,204)   DRY( 41,205)   DRY( 41,206)   DRY( 41,207)   DRY( 41,208)   
    DRY( 41,209)   DRY( 41,210)   DRY( 41,211)   DRY( 41,212)   DRY( 41,213)   
    DRY( 41,214)   DRY( 41,215)   DRY( 41,216)   DRY( 41,217)   DRY( 41,218)   
    DRY( 41,219)   DRY( 41,220)   DRY( 42,  1)   DRY( 42,  2)   DRY( 42,  3)   
    DRY( 42,  4)   DRY( 42,  5)   DRY( 42,  6)   DRY( 42,  7)   DRY( 42,  8)   
    DRY( 42,  9)   DRY( 42, 10)   DRY( 42, 11)   DRY( 42, 12)   DRY( 42, 13)   
    DRY( 42, 14)   DRY( 42, 15)   DRY( 42, 16)   DRY( 42, 17)   DRY( 42, 18)   
    DRY( 42, 19)   DRY( 42, 20)   DRY( 42, 21)   DRY( 42, 22)   DRY( 42, 23)   
    DRY( 42, 24)   DRY( 42, 25)   DRY( 42, 26)   DRY( 42, 27)   DRY( 42, 28)   
    DRY( 42, 29)   DRY( 42, 30)   DRY( 42, 31)   DRY( 42, 32)   DRY( 42, 33)   
    DRY( 42, 34)   DRY( 42, 35)   DRY( 42, 36)   DRY( 42, 37)   DRY( 42, 38)   
    DRY( 42, 39)   DRY( 42, 40)   DRY( 42, 41)   DRY( 42, 42)   DRY( 42, 43)   
    DRY( 42, 44)   DRY( 42, 45)   DRY( 42, 46)   DRY( 42, 47)   DRY( 42, 48)   
    DRY( 42, 49)   DRY( 42, 50)   DRY( 42, 51)   DRY( 42, 52)   DRY( 42, 53)   
    DRY( 42, 54)   DRY( 42, 55)   DRY( 42, 56)   DRY( 42, 57)   DRY( 42, 58)   
    DRY( 42, 59)   DRY( 42, 60)   DRY( 42, 61)   DRY( 42, 62)   DRY( 42, 63)   
    DRY( 42, 64)   DRY( 42, 65)   DRY( 42, 66)   DRY( 42, 67)   DRY( 42, 68)   
    DRY( 42, 69)   DRY( 42, 70)   DRY( 42, 71)   DRY( 42, 72)   DRY( 42, 73)   
    DRY( 42, 74)   DRY( 42, 75)   DRY( 42, 76)   DRY( 42, 77)   DRY( 42, 78)   
    DRY( 42, 79)   DRY( 42, 80)   DRY( 42, 81)   DRY( 42, 82)   DRY( 42, 83)   
    DRY( 42, 84)   DRY( 42, 85)   DRY( 42, 86)   DRY( 42, 87)   DRY( 42, 88)   
    DRY( 42, 89)   DRY( 42, 90)   DRY( 42, 91)   DRY( 42, 92)   DRY( 42, 93)   
    DRY( 42, 94)   DRY( 42, 95)   DRY( 42, 96)   DRY( 42, 97)   DRY( 42, 98)   
    DRY( 42, 99)   DRY( 42,100)   DRY( 42,101)   DRY( 42,102)   DRY( 42,103)   
    DRY( 42,104)   DRY( 42,105)   DRY( 42,106)   DRY( 42,107)   DRY( 42,108)   
    DRY( 42,109)   DRY( 42,110)   DRY( 42,111)   DRY( 42,112)   DRY( 42,113)   
    DRY( 42,114)   DRY( 42,115)   DRY( 42,116)   DRY( 42,117)   DRY( 42,118)   
    DRY( 42,119)   DRY( 42,120)   DRY( 42,121)   DRY( 42,122)   DRY( 42,123)   
    DRY( 42,124)   DRY( 42,125)   DRY( 42,126)   DRY( 42,127)   DRY( 42,128)   
    DRY( 42,129)   DRY( 42,130)   DRY( 42,131)   DRY( 42,132)   DRY( 42,133)   
    DRY( 42,134)   DRY( 42,135)   DRY( 42,136)   DRY( 42,137)   DRY( 42,138)   
    DRY( 42,139)   DRY( 42,140)   DRY( 42,141)   DRY( 42,142)   DRY( 42,143)   
    DRY( 42,144)   DRY( 42,145)   DRY( 42,146)   DRY( 42,147)   DRY( 42,148)   
    DRY( 42,149)   DRY( 42,150)   DRY( 42,151)   DRY( 42,152)   DRY( 42,153)   
    DRY( 42,154)   DRY( 42,155)   DRY( 42,156)   DRY( 42,157)   DRY( 42,158)   
    DRY( 42,159)   DRY( 42,160)   DRY( 42,161)   DRY( 42,162)   DRY( 42,163)   
    DRY( 42,164)   DRY( 42,165)   DRY( 42,166)   DRY( 42,167)   DRY( 42,168)   
    DRY( 42,169)   DRY( 42,170)   DRY( 42,171)   DRY( 42,172)   DRY( 42,173)   
    DRY( 42,174)   DRY( 42,175)   DRY( 42,176)   DRY( 42,177)   DRY( 42,178)   
    DRY( 42,179)   DRY( 42,180)   DRY( 42,181)   DRY( 42,182)   DRY( 42,183)   
    DRY( 42,184)   DRY( 42,185)   DRY( 42,186)   DRY( 42,187)   DRY( 42,188)   
    DRY( 42,189)   DRY( 42,190)   DRY( 42,191)   DRY( 42,192)   DRY( 42,193)   
    DRY( 42,194)   DRY( 42,195)   DRY( 42,196)   DRY( 42,197)   DRY( 42,198)   
    DRY( 42,199)   DRY( 42,200)   DRY( 42,201)   DRY( 42,202)   DRY( 42,203)   
    DRY( 42,204)   DRY( 42,205)   DRY( 42,206)   DRY( 42,207)   DRY( 42,208)   
    DRY( 42,209)   DRY( 42,210)   DRY( 42,211)   DRY( 42,212)   DRY( 42,213)   
    DRY( 42,214)   DRY( 42,215)   DRY( 42,216)   DRY( 42,217)   DRY( 42,218)   
    DRY( 42,219)   DRY( 42,220)   DRY( 43,  1)   DRY( 43,  2)   DRY( 43,  3)   
    DRY( 43,  4)   DRY( 43,  5)   DRY( 43,  6)   DRY( 43,  7)   DRY( 43,  8)   
    DRY( 43,  9)   DRY( 43, 10)   DRY( 43, 11)   DRY( 43, 12)   DRY( 43, 13)   
    DRY( 43, 14)   DRY( 43, 15)   DRY( 43, 16)   DRY( 43, 17)   DRY( 43, 18)   
    DRY( 43, 19)   DRY( 43, 20)   DRY( 43, 21)   DRY( 43, 22)   DRY( 43, 23)   
    DRY( 43, 24)   DRY( 43, 25)   DRY( 43, 26)   DRY( 43, 27)   DRY( 43, 28)   
    DRY( 43, 29)   DRY( 43, 30)   DRY( 43, 31)   DRY( 43, 32)   DRY( 43, 33)   
    DRY( 43, 34)   DRY( 43, 35)   DRY( 43, 36)   DRY( 43, 37)   DRY( 43, 38)   
    DRY( 43, 39)   DRY( 43, 40)   DRY( 43, 41)   DRY( 43, 42)   DRY( 43, 43)   
    DRY( 43, 44)   DRY( 43, 45)   DRY( 43, 46)   DRY( 43, 47)   DRY( 43, 48)   
    DRY( 43, 49)   DRY( 43, 50)   DRY( 43, 51)   DRY( 43, 52)   DRY( 43, 53)   
    DRY( 43, 54)   DRY( 43, 55)   DRY( 43, 56)   DRY( 43, 57)   DRY( 43, 58)   
    DRY( 43, 59)   DRY( 43, 60)   DRY( 43, 61)   DRY( 43, 62)   DRY( 43, 63)   
    DRY( 43, 64)   DRY( 43, 65)   DRY( 43, 66)   DRY( 43, 67)   DRY( 43, 68)   
    DRY( 43, 69)   DRY( 43, 70)   DRY( 43, 71)   DRY( 43, 72)   DRY( 43, 73)   
    DRY( 43, 74)   DRY( 43, 75)   DRY( 43, 76)   DRY( 43, 77)   DRY( 43, 78)   
    DRY( 43, 79)   DRY( 43, 80)   DRY( 43, 81)   DRY( 43, 82)   DRY( 43, 83)   
    DRY( 43, 84)   DRY( 43, 85)   DRY( 43, 86)   DRY( 43, 87)   DRY( 43, 88)   
    DRY( 43, 89)   DRY( 43, 90)   DRY( 43, 91)   DRY( 43, 92)   DRY( 43, 93)   
    DRY( 43, 94)   DRY( 43, 95)   DRY( 43, 96)   DRY( 43, 97)   DRY( 43, 98)   
    DRY( 43, 99)   DRY( 43,100)   DRY( 43,101)   DRY( 43,102)   DRY( 43,103)   
    DRY( 43,104)   DRY( 43,105)   DRY( 43,106)   DRY( 43,107)   DRY( 43,108)   
    DRY( 43,109)   DRY( 43,110)   DRY( 43,111)   DRY( 43,112)   DRY( 43,113)   
    DRY( 43,114)   DRY( 43,115)   DRY( 43,116)   DRY( 43,117)   DRY( 43,118)   
    DRY( 43,119)   DRY( 43,120)   DRY( 43,121)   DRY( 43,122)   DRY( 43,123)   
    DRY( 43,124)   DRY( 43,125)   DRY( 43,126)   DRY( 43,127)   DRY( 43,128)   
    DRY( 43,129)   DRY( 43,130)   DRY( 43,131)   DRY( 43,132)   DRY( 43,133)   
    DRY( 43,134)   DRY( 43,135)   DRY( 43,136)   DRY( 43,137)   DRY( 43,138)   
    DRY( 43,139)   DRY( 43,140)   DRY( 43,141)   DRY( 43,142)   DRY( 43,143)   
    DRY( 43,144)   DRY( 43,145)   DRY( 43,146)   DRY( 43,147)   DRY( 43,148)   
    DRY( 43,149)   DRY( 43,150)   DRY( 43,151)   DRY( 43,152)   DRY( 43,153)   
    DRY( 43,154)   DRY( 43,155)   DRY( 43,156)   DRY( 43,157)   DRY( 43,158)   
    DRY( 43,159)   DRY( 43,160)   DRY( 43,161)   DRY( 43,162)   DRY( 43,163)   
    DRY( 43,164)   DRY( 43,165)   DRY( 43,166)   DRY( 43,167)   DRY( 43,168)   
    DRY( 43,169)   DRY( 43,170)   DRY( 43,171)   DRY( 43,172)   DRY( 43,173)   
    DRY( 43,174)   DRY( 43,175)   DRY( 43,176)   DRY( 43,177)   DRY( 43,178)   
    DRY( 43,179)   DRY( 43,180)   DRY( 43,181)   DRY( 43,182)   DRY( 43,183)   
    DRY( 43,184)   DRY( 43,185)   DRY( 43,186)   DRY( 43,187)   DRY( 43,188)   
    DRY( 43,189)   DRY( 43,190)   DRY( 43,191)   DRY( 43,192)   DRY( 43,193)   
    DRY( 43,194)   DRY( 43,195)   DRY( 43,196)   DRY( 43,197)   DRY( 43,198)   
    DRY( 43,199)   DRY( 43,200)   DRY( 43,201)   DRY( 43,202)   DRY( 43,203)   
    DRY( 43,204)   DRY( 43,205)   DRY( 43,206)   DRY( 43,207)   DRY( 43,208)   
    DRY( 43,209)   DRY( 43,210)   DRY( 43,211)   DRY( 43,212)   DRY( 43,213)   
    DRY( 43,214)   DRY( 43,215)   DRY( 43,216)   DRY( 43,217)   DRY( 43,218)   
    DRY( 43,219)   DRY( 43,220)   DRY( 44,  1)   DRY( 44,  2)   DRY( 44,  3)   
    DRY( 44,  4)   DRY( 44,  5)   DRY( 44,  6)   DRY( 44,  7)   DRY( 44,  8)   
    DRY( 44,  9)   DRY( 44, 10)   DRY( 44, 11)   DRY( 44, 12)   DRY( 44, 13)   
    DRY( 44, 14)   DRY( 44, 15)   DRY( 44, 16)   DRY( 44, 17)   DRY( 44, 18)   
    DRY( 44, 19)   DRY( 44, 20)   DRY( 44, 21)   DRY( 44, 22)   DRY( 44, 23)   
    DRY( 44, 24)   DRY( 44, 25)   DRY( 44, 26)   DRY( 44, 27)   DRY( 44, 28)   
    DRY( 44, 29)   DRY( 44, 30)   DRY( 44, 31)   DRY( 44, 32)   DRY( 44, 33)   
    DRY( 44, 34)   DRY( 44, 35)   DRY( 44, 36)   DRY( 44, 37)   DRY( 44, 38)   
    DRY( 44, 39)   DRY( 44, 40)   DRY( 44, 41)   DRY( 44, 42)   DRY( 44, 43)   
    DRY( 44, 44)   DRY( 44, 45)   DRY( 44, 46)   DRY( 44, 47)   DRY( 44, 48)   
    DRY( 44, 49)   DRY( 44, 50)   DRY( 44, 51)   DRY( 44, 52)   DRY( 44, 53)   
    DRY( 44, 54)   DRY( 44, 55)   DRY( 44, 56)   DRY( 44, 57)   DRY( 44, 58)   
    DRY( 44, 59)   DRY( 44, 60)   DRY( 44, 61)   DRY( 44, 62)   DRY( 44, 63)   
    DRY( 44, 64)   DRY( 44, 65)   DRY( 44, 66)   DRY( 44, 67)   DRY( 44, 68)   
    DRY( 44, 69)   DRY( 44, 70)   DRY( 44, 71)   DRY( 44, 72)   DRY( 44, 73)   
    DRY( 44, 74)   DRY( 44, 75)   DRY( 44, 76)   DRY( 44, 77)   DRY( 44, 78)   
    DRY( 44, 79)   DRY( 44, 80)   DRY( 44, 81)   DRY( 44, 82)   DRY( 44, 83)   
    DRY( 44, 84)   DRY( 44, 85)   DRY( 44, 86)   DRY( 44, 87)   DRY( 44, 88)   
    DRY( 44, 89)   DRY( 44, 90)   DRY( 44, 91)   DRY( 44, 92)   DRY( 44, 93)   
    DRY( 44, 94)   DRY( 44, 95)   DRY( 44, 96)   DRY( 44, 97)   DRY( 44, 98)   
    DRY( 44, 99)   DRY( 44,100)   DRY( 44,101)   DRY( 44,102)   DRY( 44,103)   
    DRY( 44,104)   DRY( 44,105)   DRY( 44,106)   DRY( 44,107)   DRY( 44,108)   
    DRY( 44,109)   DRY( 44,110)   DRY( 44,111)   DRY( 44,112)   DRY( 44,113)   
    DRY( 44,114)   DRY( 44,115)   DRY( 44,116)   DRY( 44,117)   DRY( 44,118)   
    DRY( 44,119)   DRY( 44,120)   DRY( 44,121)   DRY( 44,122)   DRY( 44,123)   
    DRY( 44,124)   DRY( 44,125)   DRY( 44,126)   DRY( 44,127)   DRY( 44,128)   
    DRY( 44,129)   DRY( 44,130)   DRY( 44,131)   DRY( 44,132)   DRY( 44,133)   
    DRY( 44,134)   DRY( 44,135)   DRY( 44,136)   DRY( 44,137)   DRY( 44,138)   
    DRY( 44,139)   DRY( 44,140)   DRY( 44,141)   DRY( 44,142)   DRY( 44,143)   
    DRY( 44,144)   DRY( 44,145)   DRY( 44,146)   DRY( 44,147)   DRY( 44,148)   
    DRY( 44,149)   DRY( 44,150)   DRY( 44,151)   DRY( 44,152)   DRY( 44,153)   
    DRY( 44,154)   DRY( 44,155)   DRY( 44,156)   DRY( 44,157)   DRY( 44,158)   
    DRY( 44,159)   DRY( 44,160)   DRY( 44,161)   DRY( 44,162)   DRY( 44,163)   
    DRY( 44,164)   DRY( 44,165)   DRY( 44,166)   DRY( 44,167)   DRY( 44,168)   
    DRY( 44,169)   DRY( 44,170)   DRY( 44,171)   DRY( 44,172)   DRY( 44,173)   
    DRY( 44,174)   DRY( 44,175)   DRY( 44,176)   DRY( 44,177)   DRY( 44,178)   
    DRY( 44,179)   DRY( 44,180)   DRY( 44,181)   DRY( 44,182)   DRY( 44,183)   
    DRY( 44,184)   DRY( 44,185)   DRY( 44,186)   DRY( 44,187)   DRY( 44,188)   
    DRY( 44,189)   DRY( 44,190)   DRY( 44,191)   DRY( 44,192)   DRY( 44,193)   
    DRY( 44,194)   DRY( 44,195)   DRY( 44,196)   DRY( 44,197)   DRY( 44,198)   
    DRY( 44,199)   DRY( 44,200)   DRY( 44,201)   DRY( 44,202)   DRY( 44,203)   
    DRY( 44,204)   DRY( 44,205)   DRY( 44,206)   DRY( 44,207)   DRY( 44,208)   
    DRY( 44,209)   DRY( 44,210)   DRY( 44,211)   DRY( 44,212)   DRY( 44,213)   
    DRY( 44,214)   DRY( 44,215)   DRY( 44,216)   DRY( 44,217)   DRY( 44,218)   
    DRY( 44,219)   DRY( 44,220)   DRY( 45,  1)   DRY( 45,  2)   DRY( 45,  3)   
    DRY( 45,  4)   DRY( 45,  5)   DRY( 45,  6)   DRY( 45,  7)   DRY( 45,  8)   
    DRY( 45,  9)   DRY( 45, 10)   DRY( 45, 11)   DRY( 45, 12)   DRY( 45, 13)   
    DRY( 45, 14)   DRY( 45, 15)   DRY( 45, 16)   DRY( 45, 17)   DRY( 45, 18)   
    DRY( 45, 19)   DRY( 45, 20)   DRY( 45, 21)   DRY( 45, 22)   DRY( 45, 23)   
    DRY( 45, 24)   DRY( 45, 25)   DRY( 45, 26)   DRY( 45, 27)   DRY( 45, 28)   
    DRY( 45, 29)   DRY( 45, 30)   DRY( 45, 31)   DRY( 45, 32)   DRY( 45, 33)   
    DRY( 45, 34)   DRY( 45, 35)   DRY( 45, 36)   DRY( 45, 37)   DRY( 45, 38)   
    DRY( 45, 39)   DRY( 45, 40)   DRY( 45, 41)   DRY( 45, 42)   DRY( 45, 43)   
    DRY( 45, 44)   DRY( 45, 45)   DRY( 45, 46)   DRY( 45, 47)   DRY( 45, 48)   
    DRY( 45, 49)   DRY( 45, 50)   DRY( 45, 51)   DRY( 45, 52)   DRY( 45, 53)   
    DRY( 45, 54)   DRY( 45, 55)   DRY( 45, 56)   DRY( 45, 57)   DRY( 45, 58)   
    DRY( 45, 59)   DRY( 45, 60)   DRY( 45, 61)   DRY( 45, 62)   DRY( 45, 63)   
    DRY( 45, 64)   DRY( 45, 65)   DRY( 45, 66)   DRY( 45, 67)   DRY( 45, 68)   
    DRY( 45, 69)   DRY( 45, 70)   DRY( 45, 71)   DRY( 45, 72)   DRY( 45, 73)   
    DRY( 45, 74)   DRY( 45, 75)   DRY( 45, 76)   DRY( 45, 77)   DRY( 45, 78)   
    DRY( 45, 79)   DRY( 45, 80)   DRY( 45, 81)   DRY( 45, 82)   DRY( 45, 83)   
    DRY( 45, 84)   DRY( 45, 85)   DRY( 45, 86)   DRY( 45, 87)   DRY( 45, 88)   
    DRY( 45, 89)   DRY( 45, 90)   DRY( 45, 91)   DRY( 45, 92)   DRY( 45, 93)   
    DRY( 45, 94)   DRY( 45, 95)   DRY( 45, 96)   DRY( 45, 97)   DRY( 45, 98)   
    DRY( 45, 99)   DRY( 45,100)   DRY( 45,101)   DRY( 45,102)   DRY( 45,103)   
    DRY( 45,104)   DRY( 45,105)   DRY( 45,106)   DRY( 45,107)   DRY( 45,108)   
    DRY( 45,109)   DRY( 45,110)   DRY( 45,111)   DRY( 45,112)   DRY( 45,113)   
    DRY( 45,114)   DRY( 45,115)   DRY( 45,116)   DRY( 45,117)   DRY( 45,118)   
    DRY( 45,119)   DRY( 45,120)   DRY( 45,121)   DRY( 45,122)   DRY( 45,123)   
    DRY( 45,124)   DRY( 45,125)   DRY( 45,126)   DRY( 45,127)   DRY( 45,128)   
    DRY( 45,129)   DRY( 45,130)   DRY( 45,131)   DRY( 45,132)   DRY( 45,133)   
    DRY( 45,134)   DRY( 45,135)   DRY( 45,136)   DRY( 45,137)   DRY( 45,138)   
    DRY( 45,139)   DRY( 45,140)   DRY( 45,141)   DRY( 45,142)   DRY( 45,143)   
    DRY( 45,144)   DRY( 45,145)   DRY( 45,146)   DRY( 45,147)   DRY( 45,148)   
    DRY( 45,149)   DRY( 45,150)   DRY( 45,151)   DRY( 45,152)   DRY( 45,153)   
    DRY( 45,154)   DRY( 45,155)   DRY( 45,156)   DRY( 45,157)   DRY( 45,158)   
    DRY( 45,159)   DRY( 45,160)   DRY( 45,161)   DRY( 45,162)   DRY( 45,163)   
    DRY( 45,164)   DRY( 45,165)   DRY( 45,166)   DRY( 45,167)   DRY( 45,168)   
    DRY( 45,169)   DRY( 45,170)   DRY( 45,171)   DRY( 45,172)   DRY( 45,173)   
    DRY( 45,174)   DRY( 45,175)   DRY( 45,176)   DRY( 45,177)   DRY( 45,178)   
    DRY( 45,179)   DRY( 45,180)   DRY( 45,181)   DRY( 45,182)   DRY( 45,183)   
    DRY( 45,184)   DRY( 45,185)   DRY( 45,186)   DRY( 45,187)   DRY( 45,188)   
    DRY( 45,189)   DRY( 45,190)   DRY( 45,191)   DRY( 45,192)   DRY( 45,193)   
    DRY( 45,194)   DRY( 45,195)   DRY( 45,196)   DRY( 45,197)   DRY( 45,198)   
    DRY( 45,199)   DRY( 45,200)   DRY( 45,201)   DRY( 45,202)   DRY( 45,203)   
    DRY( 45,204)   DRY( 45,205)   DRY( 45,206)   DRY( 45,207)   DRY( 45,208)   
    DRY( 45,209)   DRY( 45,210)   DRY( 45,211)   DRY( 45,212)   DRY( 45,213)   
    DRY( 45,214)   DRY( 45,215)   DRY( 45,216)   DRY( 45,217)   DRY( 45,218)   
    DRY( 45,219)   DRY( 45,220)   DRY( 46,  1)   DRY( 46,  2)   DRY( 46,  3)   
    DRY( 46,  4)   DRY( 46,  5)   DRY( 46,  6)   DRY( 46,  7)   DRY( 46,  8)   
    DRY( 46,  9)   DRY( 46, 10)   DRY( 46, 11)   DRY( 46, 12)   DRY( 46, 13)   
    DRY( 46, 14)   DRY( 46, 15)   DRY( 46, 16)   DRY( 46, 17)   DRY( 46, 18)   
    DRY( 46, 19)   DRY( 46, 20)   DRY( 46, 21)   DRY( 46, 22)   DRY( 46, 23)   
    DRY( 46, 24)   DRY( 46, 25)   DRY( 46, 26)   DRY( 46, 27)   DRY( 46, 28)   
    DRY( 46, 29)   DRY( 46, 30)   DRY( 46, 31)   DRY( 46, 32)   DRY( 46, 33)   
    DRY( 46, 34)   DRY( 46, 35)   DRY( 46, 36)   DRY( 46, 37)   DRY( 46, 38)   
    DRY( 46, 39)   DRY( 46, 40)   DRY( 46, 41)   DRY( 46, 42)   DRY( 46, 43)   
    DRY( 46, 44)   DRY( 46, 45)   DRY( 46, 46)   DRY( 46, 47)   DRY( 46, 48)   
    DRY( 46, 49)   DRY( 46, 50)   DRY( 46, 51)   DRY( 46, 52)   DRY( 46, 53)   
    DRY( 46, 54)   DRY( 46, 55)   DRY( 46, 56)   DRY( 46, 57)   DRY( 46, 58)   
    DRY( 46, 59)   DRY( 46, 60)   DRY( 46, 61)   DRY( 46, 62)   DRY( 46, 63)   
    DRY( 46, 64)   DRY( 46, 65)   DRY( 46, 66)   DRY( 46, 67)   DRY( 46, 68)   
    DRY( 46, 69)   DRY( 46, 70)   DRY( 46, 71)   DRY( 46, 72)   DRY( 46, 73)   
    DRY( 46, 74)   DRY( 46, 75)   DRY( 46, 76)   DRY( 46, 77)   DRY( 46, 78)   
    DRY( 46, 79)   DRY( 46, 80)   DRY( 46, 81)   DRY( 46, 82)   DRY( 46, 83)   
    DRY( 46, 84)   DRY( 46, 85)   DRY( 46, 86)   DRY( 46, 87)   DRY( 46, 88)   
    DRY( 46, 89)   DRY( 46, 90)   DRY( 46, 91)   DRY( 46, 92)   DRY( 46, 93)   
    DRY( 46, 94)   DRY( 46, 95)   DRY( 46, 96)   DRY( 46, 97)   DRY( 46, 98)   
    DRY( 46, 99)   DRY( 46,100)   DRY( 46,101)   DRY( 46,102)   DRY( 46,103)   
    DRY( 46,104)   DRY( 46,105)   DRY( 46,106)   DRY( 46,107)   DRY( 46,108)   
    DRY( 46,109)   DRY( 46,110)   DRY( 46,111)   DRY( 46,112)   DRY( 46,113)   
    DRY( 46,114)   DRY( 46,115)   DRY( 46,116)   DRY( 46,117)   DRY( 46,118)   
    DRY( 46,119)   DRY( 46,120)   DRY( 46,121)   DRY( 46,122)   DRY( 46,123)   
    DRY( 46,124)   DRY( 46,125)   DRY( 46,126)   DRY( 46,127)   DRY( 46,128)   
    DRY( 46,129)   DRY( 46,130)   DRY( 46,131)   DRY( 46,132)   DRY( 46,133)   
    DRY( 46,134)   DRY( 46,135)   DRY( 46,136)   DRY( 46,137)   DRY( 46,138)   
    DRY( 46,139)   DRY( 46,140)   DRY( 46,141)   DRY( 46,142)   DRY( 46,143)   
    DRY( 46,144)   DRY( 46,145)   DRY( 46,146)   DRY( 46,147)   DRY( 46,148)   
    DRY( 46,149)   DRY( 46,150)   DRY( 46,151)   DRY( 46,152)   DRY( 46,153)   
    DRY( 46,154)   DRY( 46,155)   DRY( 46,156)   DRY( 46,157)   DRY( 46,158)   
    DRY( 46,159)   DRY( 46,160)   DRY( 46,161)   DRY( 46,162)   DRY( 46,163)   
    DRY( 46,164)   DRY( 46,165)   DRY( 46,166)   DRY( 46,167)   DRY( 46,168)   
    DRY( 46,169)   DRY( 46,170)   DRY( 46,171)   DRY( 46,172)   DRY( 46,173)   
    DRY( 46,174)   DRY( 46,175)   DRY( 46,176)   DRY( 46,177)   DRY( 46,178)   
    DRY( 46,179)   DRY( 46,180)   DRY( 46,181)   DRY( 46,182)   DRY( 46,183)   
    DRY( 46,184)   DRY( 46,185)   DRY( 46,186)   DRY( 46,187)   DRY( 46,188)   
    DRY( 46,189)   DRY( 46,190)   DRY( 46,191)   DRY( 46,192)   DRY( 46,193)   
    DRY( 46,194)   DRY( 46,195)   DRY( 46,196)   DRY( 46,197)   DRY( 46,198)   
    DRY( 46,199)   DRY( 46,200)   DRY( 46,201)   DRY( 46,202)   DRY( 46,203)   
    DRY( 46,204)   DRY( 46,205)   DRY( 46,206)   DRY( 46,207)   DRY( 46,208)   
    DRY( 46,209)   DRY( 46,210)   DRY( 46,211)   DRY( 46,212)   DRY( 46,213)   
    DRY( 46,214)   DRY( 46,215)   DRY( 46,216)   DRY( 46,217)   DRY( 46,218)   
    DRY( 46,219)   DRY( 46,220)   DRY( 47,  1)   DRY( 47,  2)   DRY( 47,  3)   
    DRY( 47,  4)   DRY( 47,  5)   DRY( 47,  6)   DRY( 47,  7)   DRY( 47,  8)   
    DRY( 47,  9)   DRY( 47, 10)   DRY( 47, 11)   DRY( 47, 12)   DRY( 47, 13)   
    DRY( 47, 14)   DRY( 47, 15)   DRY( 47, 16)   DRY( 47, 17)   DRY( 47, 18)   
    DRY( 47, 19)   DRY( 47, 20)   DRY( 47, 21)   DRY( 47, 22)   DRY( 47, 23)   
    DRY( 47, 24)   DRY( 47, 25)   DRY( 47, 26)   DRY( 47, 27)   DRY( 47, 28)   
    DRY( 47, 29)   DRY( 47, 30)   DRY( 47, 31)   DRY( 47, 32)   DRY( 47, 33)   
    DRY( 47, 34)   DRY( 47, 35)   DRY( 47, 36)   DRY( 47, 37)   DRY( 47, 38)   
    DRY( 47, 39)   DRY( 47, 40)   DRY( 47, 41)   DRY( 47, 42)   DRY( 47, 43)   
    DRY( 47, 44)   DRY( 47, 45)   DRY( 47, 46)   DRY( 47, 47)   DRY( 47, 48)   
    DRY( 47, 49)   DRY( 47, 50)   DRY( 47, 51)   DRY( 47, 52)   DRY( 47, 53)   
    DRY( 47, 54)   DRY( 47, 55)   DRY( 47, 56)   DRY( 47, 57)   DRY( 47, 58)   
    DRY( 47, 59)   DRY( 47, 60)   DRY( 47, 61)   DRY( 47, 62)   DRY( 47, 63)   
    DRY( 47, 64)   DRY( 47, 65)   DRY( 47, 66)   DRY( 47, 67)   DRY( 47, 68)   
    DRY( 47, 69)   DRY( 47, 70)   DRY( 47, 71)   DRY( 47, 72)   DRY( 47, 73)   
    DRY( 47, 74)   DRY( 47, 75)   DRY( 47, 76)   DRY( 47, 77)   DRY( 47, 78)   
    DRY( 47, 79)   DRY( 47, 80)   DRY( 47, 81)   DRY( 47, 82)   DRY( 47, 83)   
    DRY( 47, 84)   DRY( 47, 85)   DRY( 47, 86)   DRY( 47, 87)   DRY( 47, 88)   
    DRY( 47, 89)   DRY( 47, 90)   DRY( 47, 91)   DRY( 47, 92)   DRY( 47, 93)   
    DRY( 47, 94)   DRY( 47, 95)   DRY( 47, 96)   DRY( 47, 97)   DRY( 47, 98)   
    DRY( 47, 99)   DRY( 47,100)   DRY( 47,101)   DRY( 47,102)   DRY( 47,103)   
    DRY( 47,104)   DRY( 47,105)   DRY( 47,106)   DRY( 47,107)   DRY( 47,108)   
    DRY( 47,109)   DRY( 47,110)   DRY( 47,111)   DRY( 47,112)   DRY( 47,113)   
    DRY( 47,114)   DRY( 47,115)   DRY( 47,116)   DRY( 47,117)   DRY( 47,118)   
    DRY( 47,119)   DRY( 47,120)   DRY( 47,121)   DRY( 47,122)   DRY( 47,123)   
    DRY( 47,124)   DRY( 47,125)   DRY( 47,126)   DRY( 47,127)   DRY( 47,128)   
    DRY( 47,129)   DRY( 47,130)   DRY( 47,131)   DRY( 47,132)   DRY( 47,133)   
    DRY( 47,134)   DRY( 47,135)   DRY( 47,136)   DRY( 47,137)   DRY( 47,138)   
    DRY( 47,139)   DRY( 47,140)   DRY( 47,141)   DRY( 47,142)   DRY( 47,143)   
    DRY( 47,144)   DRY( 47,145)   DRY( 47,146)   DRY( 47,147)   DRY( 47,148)   
    DRY( 47,149)   DRY( 47,150)   DRY( 47,151)   DRY( 47,152)   DRY( 47,153)   
    DRY( 47,154)   DRY( 47,155)   DRY( 47,156)   DRY( 47,157)   DRY( 47,158)   
    DRY( 47,159)   DRY( 47,160)   DRY( 47,161)   DRY( 47,162)   DRY( 47,163)   
    DRY( 47,164)   DRY( 47,165)   DRY( 47,166)   DRY( 47,167)   DRY( 47,168)   
    DRY( 47,169)   DRY( 47,170)   DRY( 47,171)   DRY( 47,172)   DRY( 47,173)   
    DRY( 47,174)   DRY( 47,175)   DRY( 47,176)   DRY( 47,177)   DRY( 47,178)   
    DRY( 47,179)   DRY( 47,180)   DRY( 47,181)   DRY( 47,182)   DRY( 47,183)   
    DRY( 47,184)   DRY( 47,185)   DRY( 47,186)   DRY( 47,187)   DRY( 47,188)   
    DRY( 47,189)   DRY( 47,190)   DRY( 47,191)   DRY( 47,192)   DRY( 47,193)   
    DRY( 47,194)   DRY( 47,195)   DRY( 47,196)   DRY( 47,197)   DRY( 47,198)   
    DRY( 47,199)   DRY( 47,200)   DRY( 47,201)   DRY( 47,202)   DRY( 47,203)   
    DRY( 47,204)   DRY( 47,205)   DRY( 47,206)   DRY( 47,207)   DRY( 47,208)   
    DRY( 47,209)   DRY( 47,210)   DRY( 47,211)   DRY( 47,212)   DRY( 47,213)   
    DRY( 47,214)   DRY( 47,215)   DRY( 47,216)   DRY( 47,217)   DRY( 47,218)   
    DRY( 47,219)   DRY( 47,220)   DRY( 48,  1)   DRY( 48,  2)   DRY( 48,  3)   
    DRY( 48,  4)   DRY( 48,  5)   DRY( 48,  6)   DRY( 48,  7)   DRY( 48,  8)   
    DRY( 48,  9)   DRY( 48, 10)   DRY( 48, 11)   DRY( 48, 12)   DRY( 48, 13)   
    DRY( 48, 14)   DRY( 48, 15)   DRY( 48, 16)   DRY( 48, 17)   DRY( 48, 18)   
    DRY( 48, 19)   DRY( 48, 20)   DRY( 48, 21)   DRY( 48, 22)   DRY( 48, 23)   
    DRY( 48, 24)   DRY( 48, 25)   DRY( 48, 26)   DRY( 48, 27)   DRY( 48, 28)   
    DRY( 48, 29)   DRY( 48, 30)   DRY( 48, 31)   DRY( 48, 32)   DRY( 48, 33)   
    DRY( 48, 34)   DRY( 48, 35)   DRY( 48, 36)   DRY( 48, 37)   DRY( 48, 38)   
    DRY( 48, 39)   DRY( 48, 40)   DRY( 48, 41)   DRY( 48, 42)   DRY( 48, 43)   
    DRY( 48, 44)   DRY( 48, 45)   DRY( 48, 46)   DRY( 48, 47)   DRY( 48, 48)   
    DRY( 48, 49)   DRY( 48, 50)   DRY( 48, 51)   DRY( 48, 52)   DRY( 48, 53)   
    DRY( 48, 54)   DRY( 48, 55)   DRY( 48, 56)   DRY( 48, 57)   DRY( 48, 58)   
    DRY( 48, 59)   DRY( 48, 60)   DRY( 48, 61)   DRY( 48, 62)   DRY( 48, 63)   
    DRY( 48, 64)   DRY( 48, 65)   DRY( 48, 66)   DRY( 48, 67)   DRY( 48, 68)   
    DRY( 48, 69)   DRY( 48, 70)   DRY( 48, 71)   DRY( 48, 72)   DRY( 48, 73)   
    DRY( 48, 74)   DRY( 48, 75)   DRY( 48, 76)   DRY( 48, 77)   DRY( 48, 78)   
    DRY( 48, 79)   DRY( 48, 80)   DRY( 48, 81)   DRY( 48, 82)   DRY( 48, 83)   
    DRY( 48, 84)   DRY( 48, 85)   DRY( 48, 86)   DRY( 48, 87)   DRY( 48, 88)   
    DRY( 48, 89)   DRY( 48, 90)   DRY( 48, 91)   DRY( 48, 92)   DRY( 48, 93)   
    DRY( 48, 94)   DRY( 48, 95)   DRY( 48, 96)   DRY( 48, 97)   DRY( 48, 98)   
    DRY( 48, 99)   DRY( 48,100)   DRY( 48,101)   DRY( 48,102)   DRY( 48,103)   
    DRY( 48,104)   DRY( 48,105)   DRY( 48,106)   DRY( 48,107)   DRY( 48,108)   
    DRY( 48,109)   DRY( 48,110)   DRY( 48,111)   DRY( 48,112)   DRY( 48,113)   
    DRY( 48,114)   DRY( 48,115)   DRY( 48,116)   DRY( 48,117)   DRY( 48,118)   
    DRY( 48,119)   DRY( 48,120)   DRY( 48,121)   DRY( 48,122)   DRY( 48,123)   
    DRY( 48,124)   DRY( 48,125)   DRY( 48,126)   DRY( 48,127)   DRY( 48,128)   
    DRY( 48,129)   DRY( 48,130)   DRY( 48,131)   DRY( 48,132)   DRY( 48,133)   
    DRY( 48,134)   DRY( 48,135)   DRY( 48,136)   DRY( 48,137)   DRY( 48,138)   
    DRY( 48,139)   DRY( 48,140)   DRY( 48,141)   DRY( 48,142)   DRY( 48,143)   
    DRY( 48,144)   DRY( 48,145)   DRY( 48,146)   DRY( 48,147)   DRY( 48,148)   
    DRY( 48,149)   DRY( 48,150)   DRY( 48,151)   DRY( 48,152)   DRY( 48,153)   
    DRY( 48,154)   DRY( 48,155)   DRY( 48,156)   DRY( 48,157)   DRY( 48,158)   
    DRY( 48,159)   DRY( 48,160)   DRY( 48,161)   DRY( 48,162)   DRY( 48,163)   
    DRY( 48,164)   DRY( 48,165)   DRY( 48,166)   DRY( 48,167)   DRY( 48,168)   
    DRY( 48,169)   DRY( 48,170)   DRY( 48,171)   DRY( 48,172)   DRY( 48,173)   
    DRY( 48,174)   DRY( 48,175)   DRY( 48,176)   DRY( 48,177)   DRY( 48,178)   
    DRY( 48,179)   DRY( 48,180)   DRY( 48,181)   DRY( 48,182)   DRY( 48,183)   
    DRY( 48,184)   DRY( 48,185)   DRY( 48,186)   DRY( 48,187)   DRY( 48,188)   
    DRY( 48,189)   DRY( 48,190)   DRY( 48,191)   DRY( 48,192)   DRY( 48,193)   
    DRY( 48,194)   DRY( 48,195)   DRY( 48,196)   DRY( 48,197)   DRY( 48,198)   
    DRY( 48,199)   DRY( 48,200)   DRY( 48,201)   DRY( 48,202)   DRY( 48,203)   
    DRY( 48,204)   DRY( 48,205)   DRY( 48,206)   DRY( 48,207)   DRY( 48,208)   
    DRY( 48,209)   DRY( 48,210)   DRY( 48,211)   DRY( 48,212)   DRY( 48,213)   
    DRY( 48,214)   DRY( 48,215)   DRY( 48,216)   DRY( 48,217)   DRY( 48,218)   
    DRY( 48,219)   DRY( 48,220)   

 CELL CONVERSIONS FOR ITER.=  2  LAYER= 14  STEP=  1  PERIOD=   1   (ROW,COL)
    DRY( 33,  1)   DRY( 33,  2)   DRY( 34,  1)   DRY( 34,  2)   DRY( 34,  3)   
    DRY( 34,  4)   DRY( 35,  1)   DRY( 35,  2)   DRY( 35,  3)   DRY( 35,  4)   
    DRY( 35,  5)   DRY( 35,  6)   DRY( 36,  1)   DRY( 36,  2)   DRY( 36,  3)   
    DRY( 36,  4)   DRY( 36,  5)   DRY( 36,  6)   DRY( 36,  7)   DRY( 36,  8)   
    DRY( 36,  9)   DRY( 36, 10)   DRY( 37,  1)   DRY( 37,  2)   DRY( 37,  3)   
    DRY( 37,  4)   DRY( 37,  5)   DRY( 37,  6)   DRY( 37,  7)   DRY( 37,  8)   
    DRY( 37,  9)   DRY( 37, 10)   DRY( 37, 11)   DRY( 37, 12)   DRY( 37, 13)   
    DRY( 37, 14)   DRY( 37, 15)   DRY( 37, 16)   DRY( 37, 17)   DRY( 38,  1)   
    DRY( 38,  2)   DRY( 38,  3)   DRY( 38,  4)   DRY( 38,  5)   DRY( 38,  6)   
    DRY( 38,  7)   DRY( 38,  8)   DRY( 38,  9)   DRY( 38, 10)   DRY( 38, 11)   
    DRY( 38, 12)   DRY( 38, 13)   DRY( 38, 14)   DRY( 38, 15)   DRY( 38, 16)   
    DRY( 38, 17)   DRY( 38, 18)   DRY( 38, 19)   DRY( 38, 20)   DRY( 38, 21)   
    DRY( 38, 22)   DRY( 38, 37)   DRY( 38, 38)   DRY( 38, 39)   DRY( 38, 40)   
    DRY( 38, 41)   DRY( 38, 42)   DRY( 38, 43)   DRY( 38, 44)   DRY( 38, 45)   
    DRY( 38, 46)   DRY( 38, 47)   DRY( 38, 48)   DRY( 38, 49)   DRY( 38, 50)   
    DRY( 38, 51)   DRY( 38, 52)   DRY( 39,  1)   DRY( 39,  2)   DRY( 39,  3)   
    DRY( 39,  4)   DRY( 39,  5)   DRY( 39,  6)   DRY( 39,  7)   DRY( 39,  8)   
    DRY( 39,  9)   DRY( 39, 10)   DRY( 39, 11)   DRY( 39, 12)   DRY( 39, 13)   
    DRY( 39, 14)   DRY( 39, 15)   DRY( 39, 16)   DRY( 39, 17)   DRY( 39, 18)   
    DRY( 39, 19)   DRY( 39, 20)   DRY( 39, 21)   DRY( 39, 22)   DRY( 39, 23)   
    DRY( 39, 24)   DRY( 39, 25)   DRY( 39, 26)   DRY( 39, 27)   DRY( 39, 28)   
    DRY( 39, 29)   DRY( 39, 30)   DRY( 39, 31)   DRY( 39, 32)   DRY( 39, 33)   
    DRY( 39, 34)   DRY( 39, 35)   DRY( 39, 36)   DRY( 39, 37)   DRY( 39, 38)   
    DRY( 39, 39)   DRY( 39, 40)   DRY( 39, 41)   DRY( 39, 42)   DRY( 39, 43)   
    DRY( 39, 44)   DRY( 39, 45)   DRY( 39, 46)   DRY( 39, 47)   DRY( 39, 48)   
    DRY( 39, 49)   DRY( 39, 50)   DRY( 39, 51)   DRY( 39, 52)   DRY( 39, 53)   
    DRY( 39, 54)   DRY( 39, 55)   DRY( 39, 56)   DRY( 39, 57)   DRY( 39, 58)   
    DRY( 39, 59)   DRY( 39, 93)   DRY( 39, 94)   DRY( 39, 95)   DRY( 39, 96)   
    DRY( 39, 97)   DRY( 39, 98)   DRY( 39, 99)   DRY( 40,  1)   DRY( 40,  2)   
    DRY( 40,  3)   DRY( 40,  4)   DRY( 40,  5)   DRY( 40,  6)   DRY( 40,  7)   
    DRY( 40,  8)   DRY( 40,  9)   DRY( 40, 10)   DRY( 40, 11)   DRY( 40, 12)   
    DRY( 40, 13)   DRY( 40, 14)   DRY( 40, 15)   DRY( 40, 16)   DRY( 40, 17)   
    DRY( 40, 18)   DRY( 40, 19)   DRY( 40, 20)   DRY( 40, 21)   DRY( 40, 22)   
    DRY( 40, 23)   DRY( 40, 24)   DRY( 40, 25)   DRY( 40, 26)   DRY( 40, 27)   
    DRY( 40, 28)   DRY( 40, 29)   DRY( 40, 30)   DRY( 40, 31)   DRY( 40, 32)   
    DRY( 40, 33)   DRY( 40, 34)   DRY( 40, 35)   DRY( 40, 36)   DRY( 40, 37)   
    DRY( 40, 38)   DRY( 40, 39)   DRY( 40, 40)   DRY( 40, 41)   DRY( 40, 42)   
    DRY( 40, 43)   DRY( 40, 44)   DRY( 40, 45)   DRY( 40, 46)   DRY( 40, 47)   
    DRY( 40, 48)   DRY( 40, 49)   DRY( 40, 50)   DRY( 40, 51)   DRY( 40, 52)   
    DRY( 40, 53)   DRY( 40, 54)   DRY( 40, 55)   DRY( 40, 56)   DRY( 40, 57)   
    DRY( 40, 58)   DRY( 40, 59)   DRY( 40, 60)   DRY( 40, 61)   DRY( 40, 62)   
    DRY( 40, 63)   DRY( 40, 64)   DRY( 40, 87)   DRY( 40, 88)   DRY( 40, 89)   
    DRY( 40, 90)   DRY( 40, 91)   DRY( 40, 92)   DRY( 40, 93)   DRY( 40, 94)   
    DRY( 40, 95)   DRY( 40, 96)   DRY( 40, 97)   DRY( 40, 98)   DRY( 40, 99)   
    DRY( 40,100)   DRY( 40,101)   DRY( 40,102)   DRY( 40,103)   DRY( 40,104)   
    DRY( 40,105)   DRY( 40,106)   DRY( 40,107)   DRY( 40,108)   DRY( 40,109)   
    DRY( 40,110)   DRY( 40,111)   DRY( 40,112)   DRY( 40,113)   DRY( 40,114)   
    DRY( 40,115)   DRY( 40,116)   DRY( 40,117)   DRY( 40,118)   DRY( 40,119)   
    DRY( 40,120)   DRY( 40,121)   DRY( 41,  1)   DRY( 41,  2)   DRY( 41,  3)   
    DRY( 41,  4)   DRY( 41,  5)   DRY( 41,  6)   DRY( 41,  7)   DRY( 41,  8)   
    DRY( 41,  9)   DRY( 41, 10)   DRY( 41, 11)   DRY( 41, 12)   DRY( 41, 13)   
    DRY( 41, 14)   DRY( 41, 15)   DRY( 41, 16)   DRY( 41, 17)   DRY( 41, 18)   
    DRY( 41, 19)   DRY( 41, 20)   DRY( 41, 21)   DRY( 41, 22)   DRY( 41, 23)   
    DRY( 41, 24)   DRY( 41, 25)   DRY( 41, 26)   DRY( 41, 27)   DRY( 41, 28)   
    DRY( 41, 29)   DRY( 41, 30)   DRY( 41, 31)   DRY( 41, 32)   DRY( 41, 33)   
    DRY( 41, 34)   DRY( 41, 35)   DRY( 41, 36)   DRY( 41, 37)   DRY( 41, 38)   
    DRY( 41, 39)   DRY( 41, 40)   DRY( 41, 41)   DRY( 41, 42)   DRY( 41, 43)   
    DRY( 41, 44)   DRY( 41, 45)   DRY( 41, 46)   DRY( 41, 47)   DRY( 41, 48)   
    DRY( 41, 49)   DRY( 41, 50)   DRY( 41, 51)   DRY( 41, 52)   DRY( 41, 53)   
    DRY( 41, 54)   DRY( 41, 55)   DRY( 41, 56)   DRY( 41, 57)   DRY( 41, 58)   
    DRY( 41, 59)   DRY( 41, 60)   DRY( 41, 61)   DRY( 41, 62)   DRY( 41, 63)   
    DRY( 41, 64)   DRY( 41, 65)   DRY( 41, 66)   DRY( 41, 67)   DRY( 41, 68)   
    DRY( 41, 69)   DRY( 41, 70)   DRY( 41, 71)   DRY( 41, 72)   DRY( 41, 73)   
    DRY( 41, 74)   DRY( 41, 75)   DRY( 41, 76)   DRY( 41, 77)   DRY( 41, 78)   
    DRY( 41, 79)   DRY( 41, 80)   DRY( 41, 81)   DRY( 41, 82)   DRY( 41, 83)   
    DRY( 41, 84)   DRY( 41, 85)   DRY( 41, 86)   DRY( 41, 87)   DRY( 41, 88)   
    DRY( 41, 89)   DRY( 41, 90)   DRY( 41, 91)   DRY( 41, 92)   DRY( 41, 93)   
    DRY( 41, 94)   DRY( 41, 95)   DRY( 41, 96)   DRY( 41, 97)   DRY( 41, 98)   
    DRY( 41, 99)   DRY( 41,100)   DRY( 41,101)   DRY( 41,102)   DRY( 41,103)   
    DRY( 41,104)   DRY( 41,105)   DRY( 41,106)   DRY( 41,107)   DRY( 41,108)   
    DRY( 41,109)   DRY( 41,110)   DRY( 41,111)   DRY( 41,112)   DRY( 41,113)   
    DRY( 41,114)   DRY( 41,115)   DRY( 41,116)   DRY( 41,117)   DRY( 41,118)   
    DRY( 41,119)   DRY( 41,120)   DRY( 41,121)   DRY( 41,122)   DRY( 41,123)   
    DRY( 41,124)   DRY( 41,125)   DRY( 41,126)   DRY( 41,127)   DRY( 41,128)   
    DRY( 41,129)   DRY( 41,130)   DRY( 41,131)   DRY( 41,132)   DRY( 41,133)   
    DRY( 41,134)   DRY( 41,135)   DRY( 41,136)   DRY( 41,137)   DRY( 41,138)   
    DRY( 41,139)   DRY( 41,140)   DRY( 41,141)   DRY( 41,142)   DRY( 41,143)   
    DRY( 41,144)   DRY( 41,145)   DRY( 41,146)   DRY( 41,147)   DRY( 41,148)   
    DRY( 41,151)   DRY( 41,152)   DRY( 41,153)   DRY( 41,154)   DRY( 41,155)   
    DRY( 41,156)   DRY( 41,157)   DRY( 41,158)   DRY( 41,159)   DRY( 41,160)   
    DRY( 41,161)   DRY( 41,162)   DRY( 41,163)   DRY( 41,164)   DRY( 41,165)   
    DRY( 41,166)   DRY( 41,167)   DRY( 41,168)   DRY( 41,169)   DRY( 41,170)   
    DRY( 41,171)   DRY( 41,172)   DRY( 41,173)   DRY( 41,174)   DRY( 41,179)   
    DRY( 41,180)   DRY( 41,181)   DRY( 41,182)   DRY( 41,183)   DRY( 41,184)   
    DRY( 41,185)   DRY( 41,186)   DRY( 41,187)   DRY( 41,188)   DRY( 41,189)   
    DRY( 41,211)   DRY( 41,212)   DRY( 41,213)   DRY( 41,214)   DRY( 42,  1)   
    DRY( 42,  2)   DRY( 42,  3)   DRY( 42,  4)   DRY( 42,  5)   DRY( 42,  6)   
    DRY( 42,  7)   DRY( 42,  8)   DRY( 42,  9)   DRY( 42, 10)   DRY( 42, 11)   
    DRY( 42, 12)   DRY( 42, 13)   DRY( 42, 14)   DRY( 42, 15)   DRY( 42, 16)   
    DRY( 42, 17)   DRY( 42, 18)   DRY( 42, 19)   DRY( 42, 20)   DRY( 42, 21)   
    DRY( 42, 22)   DRY( 42, 23)   DRY( 42, 24)   DRY( 42, 25)   DRY( 42, 26)   
    DRY( 42, 27)   DRY( 42, 28)   DRY( 42, 29)   DRY( 42, 30)   DRY( 42, 31)   
    DRY( 42, 32)   DRY( 42, 33)   DRY( 42, 34)   DRY( 42, 35)   DRY( 42, 36)   
    DRY( 42, 37)   DRY( 42, 38)   DRY( 42, 39)   DRY( 42, 40)   DRY( 42, 41)   
    DRY( 42, 42)   DRY( 42, 43)   DRY( 42, 44)   DRY( 42, 45)   DRY( 42, 46)   
    DRY( 42, 47)   DRY( 42, 48)   DRY( 42, 49)   DRY( 42, 50)   DRY( 42, 51)   
    DRY( 42, 52)   DRY( 42, 53)   DRY( 42, 54)   DRY( 42, 55)   DRY( 42, 56)   
    DRY( 42, 57)   DRY( 42, 58)   DRY( 42, 59)   DRY( 42, 60)   DRY( 42, 61)   
    DRY( 42, 62)   DRY( 42, 63)   DRY( 42, 64)   DRY( 42, 65)   DRY( 42, 66)   
    DRY( 42, 67)   DRY( 42, 68)   DRY( 42, 69)   DRY( 42, 70)   DRY( 42, 71)   
    DRY( 42, 72)   DRY( 42, 73)   DRY( 42, 74)   DRY( 42, 75)   DRY( 42, 76)   
    DRY( 42, 77)   DRY( 42, 78)   DRY( 42, 79)   DRY( 42, 80)   DRY( 42, 81)   
    DRY( 42, 82)   DRY( 42, 83)   DRY( 42, 84)   DRY( 42, 85)   DRY( 42, 86)   
    DRY( 42, 87)   DRY( 42, 88)   DRY( 42, 89)   DRY( 42, 90)   DRY( 42, 91)   
    DRY( 42, 92)   DRY( 42, 93)   DRY( 42, 94)   DRY( 42, 95)   DRY( 42, 96)   
    DRY( 42, 97)   DRY( 42, 98)   DRY( 42, 99)   DRY( 42,100)   DRY( 42,101)   
    DRY( 42,102)   DRY( 42,103)   DRY( 42,104)   DRY( 42,105)   DRY( 42,106)   
    DRY( 42,107)   DRY( 42,108)   DRY( 42,109)   DRY( 42,110)   DRY( 42,111)   
    DRY( 42,112)   DRY( 42,113)   DRY( 42,114)   DRY( 42,115)   DRY( 42,116)   
    DRY( 42,117)   DRY( 42,118)   DRY( 42,119)   DRY( 42,120)   DRY( 42,121)   
    DRY( 42,122)   DRY( 42,123)   DRY( 42,124)   DRY( 42,125)   DRY( 42,126)   
    DRY( 42,127)   DRY( 42,128)   DRY( 42,129)   DRY( 42,130)   DRY( 42,131)   
    DRY( 42,132)   DRY( 42,133)   DRY( 42,134)   DRY( 42,135)   DRY( 42,136)   
    DRY( 42,137)   DRY( 42,138)   DRY( 42,139)   DRY( 42,140)   DRY( 42,141)   
    DRY( 42,142)   DRY( 42,143)   DRY( 42,144)   DRY( 42,145)   DRY( 42,146)   
    DRY( 42,147)   DRY( 42,148)   DRY( 42,149)   DRY( 42,150)   DRY( 42,151)   
    DRY( 42,152)   DRY( 42,153)   DRY( 42,154)   DRY( 42,155)   DRY( 42,156)   
    DRY( 42,157)   DRY( 42,158)   DRY( 42,159)   DRY( 42,160)   DRY( 42,161)   
    DRY( 42,162)   DRY( 42,163)   DRY( 42,164)   DRY( 42,165)   DRY( 42,166)   
    DRY( 42,167)   DRY( 42,168)   DRY( 42,169)   DRY( 42,170)   DRY( 42,171)   
    DRY( 42,172)   DRY( 42,173)   DRY( 42,174)   DRY( 42,175)   DRY( 42,176)   
    DRY( 42,177)   DRY( 42,178)   DRY( 42,179)   DRY( 42,180)   DRY( 42,181)   
    DRY( 42,182)   DRY( 42,183)   DRY( 42,184)   DRY( 42,185)   DRY( 42,186)   
    DRY( 42,187)   DRY( 42,188)   DRY( 42,189)   DRY( 42,190)   DRY( 42,191)   
    DRY( 42,192)   DRY( 42,193)   DRY( 42,194)   DRY( 42,195)   DRY( 42,196)   
    DRY( 42,197)   DRY( 42,198)   DRY( 42,199)   DRY( 42,200)   DRY( 42,201)   
    DRY( 42,202)   DRY( 42,203)   DRY( 42,204)   DRY( 42,205)   DRY( 42,206)   
    DRY( 42,207)   DRY( 42,208)   DRY( 42,209)   DRY( 42,210)   DRY( 42,211)   
    DRY( 42,212)   DRY( 42,213)   DRY( 42,214)   DRY( 42,215)   DRY( 42,216)   
    DRY( 43,  1)   DRY( 43,  2)   DRY( 43,  3)   DRY( 43,  4)   DRY( 43,  5)   
    DRY( 43,  6)   DRY( 43,  7)   DRY( 43,  8)   DRY( 43,  9)   DRY( 43, 10)   
    DRY( 43, 11)   DRY( 43, 12)   DRY( 43, 13)   DRY( 43, 14)   DRY( 43, 15)   
    DRY( 43, 16)   DRY( 43, 17)   DRY( 43, 18)   DRY( 43, 19)   DRY( 43, 20)   
    DRY( 43, 21)   DRY( 43, 22)   DRY( 43, 23)   DRY( 43, 24)   DRY( 43, 25)   
    DRY( 43, 26)   DRY( 43, 27)   DRY( 43, 28)   DRY( 43, 29)   DRY( 43, 30)   
    DRY( 43, 31)   DRY( 43, 32)   DRY( 43, 33)   DRY( 43, 34)   DRY( 43, 35)   
    DRY( 43, 36)   DRY( 43, 37)   DRY( 43, 38)   DRY( 43, 39)   DRY( 43, 40)   
    DRY( 43, 41)   DRY( 43, 42)   DRY( 43, 43)   DRY( 43, 44)   DRY( 43, 45)   
    DRY( 43, 46)   DRY( 43, 47)   DRY( 43, 48)   DRY( 43, 49)   DRY( 43, 50)   
    DRY( 43, 51)   DRY( 43, 52)   DRY( 43, 53)   DRY( 43, 54)   DRY( 43, 55)   
    DRY( 43, 56)   DRY( 43, 57)   DRY( 43, 58)   DRY( 43, 59)   DRY( 43, 60)   
    DRY( 43, 61)   DRY( 43, 62)   DRY( 43, 63)   DRY( 43, 64)   DRY( 43, 65)   
    DRY( 43, 66)   DRY( 43, 67)   DRY( 43, 68)   DRY( 43, 69)   DRY( 43, 70)   
    DRY( 43, 71)   DRY( 43, 72)   DRY( 43, 73)   DRY( 43, 74)   DRY( 43, 75)   
    DRY( 43, 76)   DRY( 43, 77)   DRY( 43, 78)   DRY( 43, 79)   DRY( 43, 80)   
    DRY( 43, 81)   DRY( 43, 82)   DRY( 43, 83)   DRY( 43, 84)   DRY( 43, 85)   
    DRY( 43, 86)   DRY( 43, 87)   DRY( 43, 88)   DRY( 43, 89)   DRY( 43, 90)   
    DRY( 43, 91)   DRY( 43, 92)   DRY( 43, 93)   DRY( 43, 94)   DRY( 43, 95)   
    DRY( 43, 96)   DRY( 43, 97)   DRY( 43, 98)   DRY( 43, 99)   DRY( 43,100)   
    DRY( 43,101)   DRY( 43,102)   DRY( 43,103)   DRY( 43,104)   DRY( 43,105)   
    DRY( 43,106)   DRY( 43,107)   DRY( 43,108)   DRY( 43,109)   DRY( 43,110)   
    DRY( 43,111)   DRY( 43,112)   DRY( 43,113)   DRY( 43,114)   DRY( 43,115)   
    DRY( 43,116)   DRY( 43,117)   DRY( 43,118)   DRY( 43,119)   DRY( 43,120)   
    DRY( 43,121)   DRY( 43,122)   DRY( 43,123)   DRY( 43,124)   DRY( 43,125)   
    DRY( 43,126)   DRY( 43,127)   DRY( 43,128)   DRY( 43,129)   DRY( 43,130)   
    DRY( 43,131)   DRY( 43,132)   DRY( 43,133)   DRY( 43,134)   DRY( 43,135)   
    DRY( 43,136)   DRY( 43,137)   DRY( 43,138)   DRY( 43,139)   DRY( 43,140)   
    DRY( 43,141)   DRY( 43,142)   DRY( 43,143)   DRY( 43,144)   DRY( 43,145)   
    DRY( 43,146)   DRY( 43,147)   DRY( 43,148)   DRY( 43,149)   DRY( 43,150)   
    DRY( 43,151)   DRY( 43,152)   DRY( 43,153)   DRY( 43,154)   DRY( 43,155)   
    DRY( 43,156)   DRY( 43,157)   DRY( 43,158)   DRY( 43,159)   DRY( 43,160)   
    DRY( 43,161)   DRY( 43,162)   DRY( 43,163)   DRY( 43,164)   DRY( 43,165)   
    DRY( 43,166)   DRY( 43,167)   DRY( 43,168)   DRY( 43,169)   DRY( 43,170)   
    DRY( 43,171)   DRY( 43,172)   DRY( 43,173)   DRY( 43,174)   DRY( 43,175)   
    DRY( 43,176)   DRY( 43,177)   DRY( 43,178)   DRY( 43,179)   DRY( 43,180)   
    DRY( 43,181)   DRY( 43,182)   DRY( 43,183)   DRY( 43,184)   DRY( 43,185)   
    DRY( 43,186)   DRY( 43,187)   DRY( 43,188)   DRY( 43,189)   DRY( 43,190)   
    DRY( 43,191)   DRY( 43,192)   DRY( 43,193)   DRY( 43,194)   DRY( 43,195)   
    DRY( 43,196)   DRY( 43,197)   DRY( 43,198)   DRY( 43,199)   DRY( 43,200)   
    DRY( 43,201)   DRY( 43,202)   DRY( 43,203)   DRY( 43,204)   DRY( 43,205)   
    DRY( 43,206)   DRY( 43,207)   DRY( 43,208)   DRY( 43,209)   DRY( 43,210)   
    DRY( 43,211)   DRY( 43,212)   DRY( 43,213)   DRY( 43,214)   DRY( 43,215)   
    DRY( 43,216)   DRY( 43,217)   DRY( 43,218)   DRY( 44,  1)   DRY( 44,  2)   
    DRY( 44,  3)   DRY( 44,  4)   DRY( 44,  5)   DRY( 44,  6)   DRY( 44,  7)   
    DRY( 44,  8)   DRY( 44,  9)   DRY( 44, 10)   DRY( 44, 11)   DRY( 44, 12)   
    DRY( 44, 13)   DRY( 44, 14)   DRY( 44, 15)   DRY( 44, 16)   DRY( 44, 17)   
    DRY( 44, 18)   DRY( 44, 19)   DRY( 44, 20)   DRY( 44, 21)   DRY( 44, 22)   
    DRY( 44, 23)   DRY( 44, 24)   DRY( 44, 25)   DRY( 44, 26)   DRY( 44, 27)   
    DRY( 44, 28)   DRY( 44, 29)   DRY( 44, 30)   DRY( 44, 31)   DRY( 44, 32)   
    DRY( 44, 33)   DRY( 44, 34)   DRY( 44, 35)   DRY( 44, 36)   DRY( 44, 37)   
    DRY( 44, 38)   DRY( 44, 39)   DRY( 44, 40)   DRY( 44, 41)   DRY( 44, 42)   
    DRY( 44, 43)   DRY( 44, 44)   DRY( 44, 45)   DRY( 44, 46)   DRY( 44, 47)   
    DRY( 44, 48)   DRY( 44, 49)   DRY( 44, 50)   DRY( 44, 51)   DRY( 44, 52)   
    DRY( 44, 53)   DRY( 44, 54)   DRY( 44, 55)   DRY( 44, 56)   DRY( 44, 57)   
    DRY( 44, 58)   DRY( 44, 59)   DRY( 44, 60)   DRY( 44, 61)   DRY( 44, 62)   
    DRY( 44, 63)   DRY( 44, 64)   DRY( 44, 65)   DRY( 44, 66)   DRY( 44, 67)   
    DRY( 44, 68)   DRY( 44, 69)   DRY( 44, 70)   DRY( 44, 71)   DRY( 44, 72)   
    DRY( 44, 73)   DRY( 44, 74)   DRY( 44, 75)   DRY( 44, 76)   DRY( 44, 77)   
    DRY( 44, 78)   DRY( 44, 79)   DRY( 44, 80)   DRY( 44, 81)   DRY( 44, 82)   
    DRY( 44, 83)   DRY( 44, 84)   DRY( 44, 85)   DRY( 44, 86)   DRY( 44, 87)   
    DRY( 44, 88)   DRY( 44, 89)   DRY( 44, 90)   DRY( 44, 91)   DRY( 44, 92)   
    DRY( 44, 93)   DRY( 44, 94)   DRY( 44, 95)   DRY( 44, 96)   DRY( 44, 97)   
    DRY( 44, 98)   DRY( 44, 99)   DRY( 44,100)   DRY( 44,101)   DRY( 44,102)   
    DRY( 44,103)   DRY( 44,104)   DRY( 44,105)   DRY( 44,106)   DRY( 44,107)   
    DRY( 44,108)   DRY( 44,109)   DRY( 44,110)   DRY( 44,111)   DRY( 44,112)   
    DRY( 44,113)   DRY( 44,114)   DRY( 44,115)   DRY( 44,116)   DRY( 44,117)   
    DRY( 44,118)   DRY( 44,119)   DRY( 44,120)   DRY( 44,121)   DRY( 44,122)   
    DRY( 44,123)   DRY( 44,124)   DRY( 44,125)   DRY( 44,126)   DRY( 44,127)   
    DRY( 44,128)   DRY( 44,129)   DRY( 44,130)   DRY( 44,131)   DRY( 44,132)   
    DRY( 44,133)   DRY( 44,134)   DRY( 44,135)   DRY( 44,136)   DRY( 44,137)   
    DRY( 44,138)   DRY( 44,139)   DRY( 44,140)   DRY( 44,141)   DRY( 44,142)   
    DRY( 44,143)   DRY( 44,144)   DRY( 44,145)   DRY( 44,146)   DRY( 44,147)   
    DRY( 44,148)   DRY( 44,149)   DRY( 44,150)   DRY( 44,151)   DRY( 44,152)   
    DRY( 44,153)   DRY( 44,154)   DRY( 44,155)   DRY( 44,156)   DRY( 44,157)   
    DRY( 44,158)   DRY( 44,159)   DRY( 44,160)   DRY( 44,161)   DRY( 44,162)   
    DRY( 44,163)   DRY( 44,164)   DRY( 44,165)   DRY( 44,166)   DRY( 44,167)   
    DRY( 44,168)   DRY( 44,169)   DRY( 44,170)   DRY( 44,171)   DRY( 44,172)   
    DRY( 44,173)   DRY( 44,174)   DRY( 44,175)   DRY( 44,176)   DRY( 44,177)   
    DRY( 44,178)   DRY( 44,179)   DRY( 44,180)   DRY( 44,181)   DRY( 44,182)   
    DRY( 44,183)   DRY( 44,184)   DRY( 44,185)   DRY( 44,186)   DRY( 44,187)   
    DRY( 44,188)   DRY( 44,189)   DRY( 44,190)   DRY( 44,191)   DRY( 44,192)   
    DRY( 44,193)   DRY( 44,194)   DRY( 44,195)   DRY( 44,196)   DRY( 44,197)   
    DRY( 44,198)   DRY( 44,199)   DRY( 44,200)   DRY( 44,201)   DRY( 44,202)   
    DRY( 44,203)   DRY( 44,204)   DRY( 44,205)   DRY( 44,206)   DRY( 44,207)   
    DRY( 44,208)   DRY( 44,209)   DRY( 44,210)   DRY( 44,211)   DRY( 44,212)   
    DRY( 44,213)   DRY( 44,214)   DRY( 44,215)   DRY( 44,216)   DRY( 44,217)   
    DRY( 44,218)   DRY( 44,219)   DRY( 44,220)   DRY( 45,  1)   DRY( 45,  2)   
    DRY( 45,  3)   DRY( 45,  4)   DRY( 45,  5)   DRY( 45,  6)   DRY( 45,  7)   
    DRY( 45,  8)   DRY( 45,  9)   DRY( 45, 10)   DRY( 45, 11)   DRY( 45, 12)   
    DRY( 45, 13)   DRY( 45, 14)   DRY( 45, 15)   DRY( 45, 16)   DRY( 45, 17)   
    DRY( 45, 18)   DRY( 45, 19)   DRY( 45, 20)   DRY( 45, 21)   DRY( 45, 22)   
    DRY( 45, 23)   DRY( 45, 24)   DRY( 45, 25)   DRY( 45, 26)   DRY( 45, 27)   
    DRY( 45, 28)   DRY( 45, 29)   DRY( 45, 30)   DRY( 45, 31)   DRY( 45, 32)   
    DRY( 45, 33)   DRY( 45, 34)   DRY( 45, 35)   DRY( 45, 36)   DRY( 45, 37)   
    DRY( 45, 38)   DRY( 45, 39)   DRY( 45, 40)   DRY( 45, 41)   DRY( 45, 42)   
    DRY( 45, 43)   DRY( 45, 44)   DRY( 45, 45)   DRY( 45, 46)   DRY( 45, 47)   
    DRY( 45, 48)   DRY( 45, 49)   DRY( 45, 50)   DRY( 45, 51)   DRY( 45, 52)   
    DRY( 45, 53)   DRY( 45, 54)   DRY( 45, 55)   DRY( 45, 56)   DRY( 45, 57)   
    DRY( 45, 58)   DRY( 45, 59)   DRY( 45, 60)   DRY( 45, 61)   DRY( 45, 62)   
    DRY( 45, 63)   DRY( 45, 64)   DRY( 45, 65)   DRY( 45, 66)   DRY( 45, 67)   
    DRY( 45, 68)   DRY( 45, 69)   DRY( 45, 70)   DRY( 45, 71)   DRY( 45, 72)   
    DRY( 45, 73)   DRY( 45, 74)   DRY( 45, 75)   DRY( 45, 76)   DRY( 45, 77)   
    DRY( 45, 78)   DRY( 45, 79)   DRY( 45, 80)   DRY( 45, 81)   DRY( 45, 82)   
    DRY( 45, 83)   DRY( 45, 84)   DRY( 45, 85)   DRY( 45, 86)   DRY( 45, 87)   
    DRY( 45, 88)   DRY( 45, 89)   DRY( 45, 90)   DRY( 45, 91)   DRY( 45, 92)   
    DRY( 45, 93)   DRY( 45, 94)   DRY( 45, 95)   DRY( 45, 96)   DRY( 45, 97)   
    DRY( 45, 98)   DRY( 45, 99)   DRY( 45,100)   DRY( 45,101)   DRY( 45,102)   
    DRY( 45,103)   DRY( 45,104)   DRY( 45,105)   DRY( 45,106)   DRY( 45,107)   
    DRY( 45,108)   DRY( 45,109)   DRY( 45,110)   DRY( 45,111)   DRY( 45,112)   
    DRY( 45,113)   DRY( 45,114)   DRY( 45,115)   DRY( 45,116)   DRY( 45,117)   
    DRY( 45,118)   DRY( 45,119)   DRY( 45,120)   DRY( 45,121)   DRY( 45,122)   
    DRY( 45,123)   DRY( 45,124)   DRY( 45,125)   DRY( 45,126)   DRY( 45,127)   
    DRY( 45,128)   DRY( 45,129)   DRY( 45,130)   DRY( 45,131)   DRY( 45,132)   
    DRY( 45,133)   DRY( 45,134)   DRY( 45,135)   DRY( 45,136)   DRY( 45,137)   
    DRY( 45,138)   DRY( 45,139)   DRY( 45,140)   DRY( 45,141)   DRY( 45,142)   
    DRY( 45,143)   DRY( 45,144)   DRY( 45,145)   DRY( 45,146)   DRY( 45,147)   
    DRY( 45,148)   DRY( 45,149)   DRY( 45,150)   DRY( 45,151)   DRY( 45,152)   
    DRY( 45,153)   DRY( 45,154)   DRY( 45,155)   DRY( 45,156)   DRY( 45,157)   
    DRY( 45,158)   DRY( 45,159)   DRY( 45,160)   DRY( 45,161)   DRY( 45,162)   
    DRY( 45,163)   DRY( 45,164)   DRY( 45,165)   DRY( 45,166)   DRY( 45,167)   
    DRY( 45,168)   DRY( 45,169)   DRY( 45,170)   DRY( 45,171)   DRY( 45,172)   
    DRY( 45,173)   DRY( 45,174)   DRY( 45,175)   DRY( 45,176)   DRY( 45,177)   
    DRY( 45,178)   DRY( 45,179)   DRY( 45,180)   DRY( 45,181)   DRY( 45,182)   
    DRY( 45,183)   DRY( 45,184)   DRY( 45,185)   DRY( 45,186)   DRY( 45,187)   
    DRY( 45,188)   DRY( 45,189)   DRY( 45,190)   DRY( 45,191)   DRY( 45,192)   
    DRY( 45,193)   DRY( 45,194)   DRY( 45,195)   DRY( 45,196)   DRY( 45,197)   
    DRY( 45,198)   DRY( 45,199)   DRY( 45,200)   DRY( 45,201)   DRY( 45,202)   
    DRY( 45,203)   DRY( 45,204)   DRY( 45,205)   DRY( 45,206)   DRY( 45,207)   
    DRY( 45,208)   DRY( 45,209)   DRY( 45,210)   DRY( 45,211)   DRY( 45,212)   
    DRY( 45,213)   DRY( 45,214)   DRY( 45,215)   DRY( 45,216)   DRY( 45,217)   
    DRY( 45,218)   DRY( 45,219)   DRY( 45,220)   DRY( 46,  1)   DRY( 46,  2)   
    DRY( 46,  3)   DRY( 46,  4)   DRY( 46,  5)   DRY( 46,  6)   DRY( 46,  7)   
    DRY( 46,  8)   DRY( 46,  9)   DRY( 46, 10)   DRY( 46, 11)   DRY( 46, 12)   
    DRY( 46, 13)   DRY( 46, 14)   DRY( 46, 15)   DRY( 46, 16)   DRY( 46, 17)   
    DRY( 46, 18)   DRY( 46, 19)   DRY( 46, 20)   DRY( 46, 21)   DRY( 46, 22)   
    DRY( 46, 23)   DRY( 46, 24)   DRY( 46, 25)   DRY( 46, 26)   DRY( 46, 27)   
    DRY( 46, 28)   DRY( 46, 29)   DRY( 46, 30)   DRY( 46, 31)   DRY( 46, 32)   
    DRY( 46, 33)   DRY( 46, 34)   DRY( 46, 35)   DRY( 46, 36)   DRY( 46, 37)   
    DRY( 46, 38)   DRY( 46, 39)   DRY( 46, 40)   DRY( 46, 41)   DRY( 46, 42)   
    DRY( 46, 43)   DRY( 46, 44)   DRY( 46, 45)   DRY( 46, 46)   DRY( 46, 47)   
    DRY( 46, 48)   DRY( 46, 49)   DRY( 46, 50)   DRY( 46, 51)   DRY( 46, 52)   
    DRY( 46, 53)   DRY( 46, 54)   DRY( 46, 55)   DRY( 46, 56)   DRY( 46, 57)   
    DRY( 46, 58)   DRY( 46, 59)   DRY( 46, 60)   DRY( 46, 61)   DRY( 46, 62)   
    DRY( 46, 63)   DRY( 46, 64)   DRY( 46, 65)   DRY( 46, 66)   DRY( 46, 67)   
    DRY( 46, 68)   DRY( 46, 69)   DRY( 46, 70)   DRY( 46, 71)   DRY( 46, 72)   
    DRY( 46, 73)   DRY( 46, 74)   DRY( 46, 75)   DRY( 46, 76)   DRY( 46, 77)   
    DRY( 46, 78)   DRY( 46, 79)   DRY( 46, 80)   DRY( 46, 81)   DRY( 46, 82)   
    DRY( 46, 83)   DRY( 46, 84)   DRY( 46, 85)   DRY( 46, 86)   DRY( 46, 87)   
    DRY( 46, 88)   DRY( 46, 89)   DRY( 46, 90)   DRY( 46, 91)   DRY( 46, 92)   
    DRY( 46, 93)   DRY( 46, 94)   DRY( 46, 95)   DRY( 46, 96)   DRY( 46, 97)   
    DRY( 46, 98)   DRY( 46, 99)   DRY( 46,100)   DRY( 46,101)   DRY( 46,102)   
    DRY( 46,103)   DRY( 46,104)   DRY( 46,105)   DRY( 46,106)   DRY( 46,107)   
    DRY( 46,108)   DRY( 46,109)   DRY( 46,110)   DRY( 46,111)   DRY( 46,112)   
    DRY( 46,113)   DRY( 46,114)   DRY( 46,115)   DRY( 46,116)   DRY( 46,117)   
    DRY( 46,118)   DRY( 46,119)   DRY( 46,120)   DRY( 46,121)   DRY( 46,122)   
    DRY( 46,123)   DRY( 46,124)   DRY( 46,125)   DRY( 46,126)   DRY( 46,127)   
    DRY( 46,128)   DRY( 46,129)   DRY( 46,130)   DRY( 46,131)   DRY( 46,132)   
    DRY( 46,133)   DRY( 46,134)   DRY( 46,135)   DRY( 46,136)   DRY( 46,137)   
    DRY( 46,138)   DRY( 46,139)   DRY( 46,140)   DRY( 46,141)   DRY( 46,142)   
    DRY( 46,143)   DRY( 46,144)   DRY( 46,145)   DRY( 46,146)   DRY( 46,147)   
    DRY( 46,148)   DRY( 46,149)   DRY( 46,150)   DRY( 46,151)   DRY( 46,152)   
    DRY( 46,153)   DRY( 46,154)   DRY( 46,155)   DRY( 46,156)   DRY( 46,157)   
    DRY( 46,158)   DRY( 46,159)   DRY( 46,160)   DRY( 46,161)   DRY( 46,162)   
    DRY( 46,163)   DRY( 46,164)   DRY( 46,165)   DRY( 46,166)   DRY( 46,167)   
    DRY( 46,168)   DRY( 46,169)   DRY( 46,170)   DRY( 46,171)   DRY( 46,172)   
    DRY( 46,173)   DRY( 46,174)   DRY( 46,175)   DRY( 46,176)   DRY( 46,177)   
    DRY( 46,178)   DRY( 46,179)   DRY( 46,180)   DRY( 46,181)   DRY( 46,182)   
    DRY( 46,183)   DRY( 46,184)   DRY( 46,185)   DRY( 46,186)   DRY( 46,187)   
    DRY( 46,188)   DRY( 46,189)   DRY( 46,190)   DRY( 46,191)   DRY( 46,192)   
    DRY( 46,193)   DRY( 46,194)   DRY( 46,195)   DRY( 46,196)   DRY( 46,197)   
    DRY( 46,198)   DRY( 46,199)   DRY( 46,200)   DRY( 46,201)   DRY( 46,202)   
    DRY( 46,203)   DRY( 46,204)   DRY( 46,205)   DRY( 46,206)   DRY( 46,207)   
    DRY( 46,208)   DRY( 46,209)   DRY( 46,210)   DRY( 46,211)   DRY( 46,212)   
    DRY( 46,213)   DRY( 46,214)   DRY( 46,215)   DRY( 46,216)   DRY( 46,217)   
    DRY( 46,218)   DRY( 46,219)   DRY( 46,220)   DRY( 47,  1)   DRY( 47,  2)   
    DRY( 47,  3)   DRY( 47,  4)   DRY( 47,  5)   DRY( 47,  6)   DRY( 47,  7)   
    DRY( 47,  8)   DRY( 47,  9)   DRY( 47, 10)   DRY( 47, 11)   DRY( 47, 12)   
    DRY( 47, 13)   DRY( 47, 14)   DRY( 47, 15)   DRY( 47, 16)   DRY( 47, 17)   
    DRY( 47, 18)   DRY( 47, 19)   DRY( 47, 20)   DRY( 47, 21)   DRY( 47, 22)   
    DRY( 47, 23)   DRY( 47, 24)   DRY( 47, 25)   DRY( 47, 26)   DRY( 47, 27)   
    DRY( 47, 28)   DRY( 47, 29)   DRY( 47, 30)   DRY( 47, 31)   DRY( 47, 32)   
    DRY( 47, 33)   DRY( 47, 34)   DRY( 47, 35)   DRY( 47, 36)   DRY( 47, 37)   
    DRY( 47, 38)   DRY( 47, 39)   DRY( 47, 40)   DRY( 47, 41)   DRY( 47, 42)   
    DRY( 47, 43)   DRY( 47, 44)   DRY( 47, 45)   DRY( 47, 46)   DRY( 47, 47)   
    DRY( 47, 48)   DRY( 47, 49)   DRY( 47, 50)   DRY( 47, 51)   DRY( 47, 52)   
    DRY( 47, 53)   DRY( 47, 54)   DRY( 47, 55)   DRY( 47, 56)   DRY( 47, 57)   
    DRY( 47, 58)   DRY( 47, 59)   DRY( 47, 60)   DRY( 47, 61)   DRY( 47, 62)   
    DRY( 47, 63)   DRY( 47, 64)   DRY( 47, 65)   DRY( 47, 66)   DRY( 47, 67)   
    DRY( 47, 68)   DRY( 47, 69)   DRY( 47, 70)   DRY( 47, 71)   DRY( 47, 72)   
    DRY( 47, 73)   DRY( 47, 74)   DRY( 47, 75)   DRY( 47, 76)   DRY( 47, 77)   
    DRY( 47, 78)   DRY( 47, 79)   DRY( 47, 80)   DRY( 47, 81)   DRY( 47, 82)   
    DRY( 47, 83)   DRY( 47, 84)   DRY( 47, 85)   DRY( 47, 86)   DRY( 47, 87)   
    DRY( 47, 88)   DRY( 47, 89)   DRY( 47, 90)   DRY( 47, 91)   DRY( 47, 92)   
    DRY( 47, 93)   DRY( 47, 94)   DRY( 47, 95)   DRY( 47, 96)   DRY( 47, 97)   
    DRY( 47, 98)   DRY( 47, 99)   DRY( 47,100)   DRY( 47,101)   DRY( 47,102)   
    DRY( 47,103)   DRY( 47,104)   DRY( 47,105)   DRY( 47,106)   DRY( 47,107)   
    DRY( 47,108)   DRY( 47,109)   DRY( 47,110)   DRY( 47,111)   DRY( 47,112)   
    DRY( 47,113)   DRY( 47,114)   DRY( 47,115)   DRY( 47,116)   DRY( 47,117)   
    DRY( 47,118)   DRY( 47,119)   DRY( 47,120)   DRY( 47,121)   DRY( 47,122)   
    DRY( 47,123)   DRY( 47,124)   DRY( 47,125)   DRY( 47,126)   DRY( 47,127)   
    DRY( 47,128)   DRY( 47,129)   DRY( 47,130)   DRY( 47,131)   DRY( 47,132)   
    DRY( 47,133)   DRY( 47,134)   DRY( 47,135)   DRY( 47,136)   DRY( 47,137)   
    DRY( 47,138)   DRY( 47,139)   DRY( 47,140)   DRY( 47,141)   DRY( 47,142)   
    DRY( 47,143)   DRY( 47,144)   DRY( 47,145)   DRY( 47,146)   DRY( 47,147)   
    DRY( 47,148)   DRY( 47,149)   DRY( 47,150)   DRY( 47,151)   DRY( 47,152)   
    DRY( 47,153)   DRY( 47,154)   DRY( 47,155)   DRY( 47,156)   DRY( 47,157)   
    DRY( 47,158)   DRY( 47,159)   DRY( 47,160)   DRY( 47,161)   DRY( 47,162)   
    DRY( 47,163)   DRY( 47,164)   DRY( 47,165)   DRY( 47,166)   DRY( 47,167)   
    DRY( 47,168)   DRY( 47,169)   DRY( 47,170)   DRY( 47,171)   DRY( 47,172)   
    DRY( 47,173)   DRY( 47,174)   DRY( 47,175)   DRY( 47,176)   DRY( 47,177)   
    DRY( 47,178)   DRY( 47,179)   DRY( 47,180)   DRY( 47,181)   DRY( 47,182)   
    DRY( 47,183)   DRY( 47,184)   DRY( 47,185)   DRY( 47,186)   DRY( 47,187)   
    DRY( 47,188)   DRY( 47,189)   DRY( 47,190)   DRY( 47,191)   DRY( 47,192)   
    DRY( 47,193)   DRY( 47,194)   DRY( 47,195)   DRY( 47,196)   DRY( 47,197)   
    DRY( 47,198)   DRY( 47,199)   DRY( 47,200)   DRY( 47,201)   DRY( 47,202)   
    DRY( 47,203)   DRY( 47,204)   DRY( 47,205)   DRY( 47,206)   DRY( 47,207)   
    DRY( 47,208)   DRY( 47,209)   DRY( 47,210)   DRY( 47,211)   DRY( 47,212)   
    DRY( 47,213)   DRY( 47,214)   DRY( 47,215)   DRY( 47,216)   DRY( 47,217)   
    DRY( 47,218)   DRY( 47,219)   DRY( 47,220)   DRY( 48,  1)   DRY( 48,  2)   
    DRY( 48,  3)   DRY( 48,  4)   DRY( 48,  5)   DRY( 48,  6)   DRY( 48,  7)   
    DRY( 48,  8)   DRY( 48,  9)   DRY( 48, 10)   DRY( 48, 11)   DRY( 48, 12)   
    DRY( 48, 13)   DRY( 48, 14)   DRY( 48, 15)   DRY( 48, 16)   DRY( 48, 17)   
    DRY( 48, 18)   DRY( 48, 19)   DRY( 48, 20)   DRY( 48, 21)   DRY( 48, 22)   
    DRY( 48, 23)   DRY( 48, 24)   DRY( 48, 25)   DRY( 48, 26)   DRY( 48, 27)   
    DRY( 48, 28)   DRY( 48, 29)   DRY( 48, 30)   DRY( 48, 31)   DRY( 48, 32)   
    DRY( 48, 33)   DRY( 48, 34)   DRY( 48, 35)   DRY( 48, 36)   DRY( 48, 37)   
    DRY( 48, 38)   DRY( 48, 39)   DRY( 48, 40)   DRY( 48, 41)   DRY( 48, 42)   
    DRY( 48, 43)   DRY( 48, 44)   DRY( 48, 45)   DRY( 48, 46)   DRY( 48, 47)   
    DRY( 48, 48)   DRY( 48, 49)   DRY( 48, 50)   DRY( 48, 51)   DRY( 48, 52)   
    DRY( 48, 53)   DRY( 48, 54)   DRY( 48, 55)   DRY( 48, 56)   DRY( 48, 57)   
    DRY( 48, 58)   DRY( 48, 59)   DRY( 48, 60)   DRY( 48, 61)   DRY( 48, 62)   
    DRY( 48, 63)   DRY( 48, 64)   DRY( 48, 65)   DRY( 48, 66)   DRY( 48, 67)   
    DRY( 48, 68)   DRY( 48, 69)   DRY( 48, 70)   DRY( 48, 71)   DRY( 48, 72)   
    DRY( 48, 73)   DRY( 48, 74)   DRY( 48, 75)   DRY( 48, 76)   DRY( 48, 77)   
    DRY( 48, 78)   DRY( 48, 79)   DRY( 48, 80)   DRY( 48, 81)   DRY( 48, 82)   
    DRY( 48, 83)   DRY( 48, 84)   DRY( 48, 85)   DRY( 48, 86)   DRY( 48, 87)   
    DRY( 48, 88)   DRY( 48, 89)   DRY( 48, 90)   DRY( 48, 91)   DRY( 48, 92)   
    DRY( 48, 93)   DRY( 48, 94)   DRY( 48, 95)   DRY( 48, 96)   DRY( 48, 97)   
    DRY( 48, 98)   DRY( 48, 99)   DRY( 48,100)   DRY( 48,101)   DRY( 48,102)   
    DRY( 48,103)   DRY( 48,104)   DRY( 48,105)   DRY( 48,106)   DRY( 48,107)   
    DRY( 48,108)   DRY( 48,109)   DRY( 48,110)   DRY( 48,111)   DRY( 48,112)   
    DRY( 48,113)   DRY( 48,114)   DRY( 48,115)   DRY( 48,116)   DRY( 48,117)   
    DRY( 48,118)   DRY( 48,119)   DRY( 48,120)   DRY( 48,121)   DRY( 48,122)   
    DRY( 48,123)   DRY( 48,124)   DRY( 48,125)   DRY( 48,126)   DRY( 48,127)   
    DRY( 48,128)   DRY( 48,129)   DRY( 48,130)   DRY( 48,131)   DRY( 48,132)   
    DRY( 48,133)   DRY( 48,134)   DRY( 48,135)   DRY( 48,136)   DRY( 48,137)   
    DRY( 48,138)   DRY( 48,139)   DRY( 48,140)   DRY( 48,141)   DRY( 48,142)   
    DRY( 48,143)   DRY( 48,144)   DRY( 48,145)   DRY( 48,146)   DRY( 48,147)   
    DRY( 48,148)   DRY( 48,149)   DRY( 48,150)   DRY( 48,151)   DRY( 48,152)   
    DRY( 48,153)   DRY( 48,154)   DRY( 48,155)   DRY( 48,156)   DRY( 48,157)   
    DRY( 48,158)   DRY( 48,159)   DRY( 48,160)   DRY( 48,161)   DRY( 48,162)   
    DRY( 48,163)   DRY( 48,164)   DRY( 48,165)   DRY( 48,166)   DRY( 48,167)   
    DRY( 48,168)   DRY( 48,169)   DRY( 48,170)   DRY( 48,171)   DRY( 48,172)   
    DRY( 48,173)   DRY( 48,174)   DRY( 48,175)   DRY( 48,176)   DRY( 48,177)   
    DRY( 48,178)   DRY( 48,179)   DRY( 48,180)   DRY( 48,181)   DRY( 48,182)   
    DRY( 48,183)   DRY( 48,184)   DRY( 48,185)   DRY( 48,186)   DRY( 48,187)   
    DRY( 48,188)   DRY( 48,189)   DRY( 48,190)   DRY( 48,191)   DRY( 48,192)   
    DRY( 48,193)   DRY( 48,194)   DRY( 48,195)   DRY( 48,196)   DRY( 48,197)   
    DRY( 48,198)   DRY( 48,199)   DRY( 48,200)   DRY( 48,201)   DRY( 48,202)   
    DRY( 48,203)   DRY( 48,204)   DRY( 48,205)   DRY( 48,206)   DRY( 48,207)   
    DRY( 48,208)   DRY( 48,209)   DRY( 48,210)   DRY( 48,211)   DRY( 48,212)   
    DRY( 48,213)   DRY( 48,214)   DRY( 48,215)   DRY( 48,216)   DRY( 48,217)   
    DRY( 48,218)   DRY( 48,219)   DRY( 48,220)   

 CELL CONVERSIONS FOR ITER.=  2  LAYER= 15  STEP=  1  PERIOD=   1   (ROW,COL)
    DRY( 37,  1)   DRY( 37,  2)   DRY( 38,  1)   DRY( 38,  2)   DRY( 38,  3)   
    DRY( 38,  4)   DRY( 38,  5)   DRY( 39,  1)   DRY( 39,  2)   DRY( 39,  3)   
    DRY( 39,  4)   DRY( 39,  5)   DRY( 39,  6)   DRY( 39,  7)   DRY( 40,  1)   
    DRY( 40,  2)   DRY( 40,  3)   DRY( 40,  4)   DRY( 40,  5)   DRY( 40,  6)   
    DRY( 40,  7)   DRY( 40,  8)   DRY( 40,  9)   DRY( 40, 10)   DRY( 41,  1)   
    DRY( 41,  2)   DRY( 41,  3)   DRY( 41,  4)   DRY( 41,  5)   DRY( 41,  6)   
    DRY( 41,  7)   DRY( 41,  8)   DRY( 41,  9)   DRY( 41, 10)   DRY( 41, 11)   
    DRY( 41, 12)   DRY( 41, 13)   DRY( 41, 14)   DRY( 41, 15)   DRY( 41, 16)   
    DRY( 42,  1)   DRY( 42,  2)   DRY( 42,  3)   DRY( 42,  4)   DRY( 42,  5)   
    DRY( 42,  6)   DRY( 42,  7)   DRY( 42,  8)   DRY( 42,  9)   DRY( 42, 10)   
    DRY( 42, 11)   DRY( 42, 12)   DRY( 42, 13)   DRY( 42, 14)   DRY( 42, 15)   
    DRY( 42, 16)   DRY( 42, 17)   DRY( 42, 18)   DRY( 42, 19)   DRY( 42, 20)   
    DRY( 42, 21)   DRY( 42, 22)   DRY( 42, 23)   DRY( 43,  1)   DRY( 43,  2)   
    DRY( 43,  3)   DRY( 43,  4)   DRY( 43,  5)   DRY( 43,  6)   DRY( 43,  7)   
    DRY( 43,  8)   DRY( 43,  9)   DRY( 43, 10)   DRY( 43, 11)   DRY( 43, 12)   
    DRY( 43, 13)   DRY( 43, 14)   DRY( 43, 15)   DRY( 43, 16)   DRY( 43, 17)   
    DRY( 43, 18)   DRY( 43, 19)   DRY( 43, 20)   DRY( 43, 21)   DRY( 43, 22)   
    DRY( 43, 23)   DRY( 43, 24)   DRY( 43, 25)   DRY( 43, 26)   DRY( 43, 27)   
    DRY( 43, 28)   DRY( 43, 38)   DRY( 43, 39)   DRY( 43, 40)   DRY( 43, 41)   
    DRY( 43, 42)   DRY( 43, 43)   DRY( 43, 44)   DRY( 43, 45)   DRY( 43, 46)   
    DRY( 43, 47)   DRY( 43, 48)   DRY( 43, 49)   DRY( 43, 50)   DRY( 43, 51)   
    DRY( 43, 52)   DRY( 43, 53)   DRY( 43, 54)   DRY( 43, 55)   DRY( 43, 56)   
    DRY( 43, 57)   DRY( 43, 58)   DRY( 43, 59)   DRY( 43, 60)   DRY( 43, 61)   
    DRY( 43, 62)   DRY( 44,  1)   DRY( 44,  2)   DRY( 44,  3)   DRY( 44,  4)   
    DRY( 44,  5)   DRY( 44,  6)   DRY( 44,  7)   DRY( 44,  8)   DRY( 44,  9)   
    DRY( 44, 10)   DRY( 44, 11)   DRY( 44, 12)   DRY( 44, 13)   DRY( 44, 14)   
    DRY( 44, 15)   DRY( 44, 16)   DRY( 44, 17)   DRY( 44, 18)   DRY( 44, 19)   
    DRY( 44, 20)   DRY( 44, 21)   DRY( 44, 22)   DRY( 44, 23)   DRY( 44, 24)   
    DRY( 44, 25)   DRY( 44, 26)   DRY( 44, 27)   DRY( 44, 28)   DRY( 44, 29)   
    DRY( 44, 30)   DRY( 44, 31)   DRY( 44, 32)   DRY( 44, 33)   DRY( 44, 34)   
    DRY( 44, 35)   DRY( 44, 36)   DRY( 44, 37)   DRY( 44, 38)   DRY( 44, 39)   
    DRY( 44, 40)   DRY( 44, 41)   DRY( 44, 42)   DRY( 44, 43)   DRY( 44, 44)   
    DRY( 44, 45)   DRY( 44, 46)   DRY( 44, 47)   DRY( 44, 48)   DRY( 44, 49)   
    DRY( 44, 50)   DRY( 44, 51)   DRY( 44, 52)   DRY( 44, 53)   DRY( 44, 54)   
    DRY( 44, 55)   DRY( 44, 56)   DRY( 44, 57)   DRY( 44, 58)   DRY( 44, 59)   
    DRY( 44, 60)   DRY( 44, 61)   DRY( 44, 62)   DRY( 44, 63)   DRY( 44, 64)   
    DRY( 44, 65)   DRY( 44, 66)   DRY( 44, 67)   DRY( 44, 68)   DRY( 44, 96)   
    DRY( 44, 97)   DRY( 44, 98)   DRY( 44, 99)   DRY( 44,100)   DRY( 44,101)   
    DRY( 44,102)   DRY( 44,103)   DRY( 44,104)   DRY( 44,105)   DRY( 44,106)   
    DRY( 44,107)   DRY( 44,108)   DRY( 44,109)   DRY( 44,110)   DRY( 44,111)   
    DRY( 44,112)   DRY( 44,113)   DRY( 44,114)   DRY( 44,115)   DRY( 44,116)   
    DRY( 44,117)   DRY( 44,118)   DRY( 44,119)   DRY( 44,120)   DRY( 44,121)   
    DRY( 44,122)   DRY( 45,  1)   DRY( 45,  2)   DRY( 45,  3)   DRY( 45,  4)   
    DRY( 45,  5)   DRY( 45,  6)   DRY( 45,  7)   DRY( 45,  8)   DRY( 45,  9)   
    DRY( 45, 10)   DRY( 45, 11)   DRY( 45, 12)   DRY( 45, 13)   DRY( 45, 14)   
    DRY( 45, 15)   DRY( 45, 16)   DRY( 45, 17)   DRY( 45, 18)   DRY( 45, 19)   
    DRY( 45, 20)   DRY( 45, 21)   DRY( 45, 22)   DRY( 45, 23)   DRY( 45, 24)   
    DRY( 45, 25)   DRY( 45, 26)   DRY( 45, 27)   DRY( 45, 28)   DRY( 45, 29)   
    DRY( 45, 30)   DRY( 45, 31)   DRY( 45, 32)   DRY( 45, 33)   DRY( 45, 34)   
    DRY( 45, 35)   DRY( 45, 36)   DRY( 45, 37)   DRY( 45, 38)   DRY( 45, 39)   
    DRY( 45, 40)   DRY( 45, 41)   DRY( 45, 42)   DRY( 45, 43)   DRY( 45, 44)   
    DRY( 45, 45)   DRY( 45, 46)   DRY( 45, 47)   DRY( 45, 48)   DRY( 45, 49)   
    DRY( 45, 50)   DRY( 45, 51)   DRY( 45, 52)   DRY( 45, 53)   DRY( 45, 54)   
    DRY( 45, 55)   DRY( 45, 56)   DRY( 45, 57)   DRY( 45, 58)   DRY( 45, 59)   
    DRY( 45, 60)   DRY( 45, 61)   DRY( 45, 62)   DRY( 45, 63)   DRY( 45, 64)   
    DRY( 45, 65)   DRY( 45, 66)   DRY( 45, 67)   DRY( 45, 68)   DRY( 45, 69)   
    DRY( 45, 70)   DRY( 45, 71)   DRY( 45, 72)   DRY( 45, 73)   DRY( 45, 74)   
    DRY( 45, 75)   DRY( 45, 76)   DRY( 45, 77)   DRY( 45, 78)   DRY( 45, 79)   
    DRY( 45, 80)   DRY( 45, 81)   DRY( 45, 82)   DRY( 45, 83)   DRY( 45, 84)   
    DRY( 45, 85)   DRY( 45, 86)   DRY( 45, 87)   DRY( 45, 88)   DRY( 45, 89)   
    DRY( 45, 90)   DRY( 45, 91)   DRY( 45, 92)   DRY( 45, 93)   DRY( 45, 94)   
    DRY( 45, 95)   DRY( 45, 96)   DRY( 45, 97)   DRY( 45, 98)   DRY( 45, 99)   
    DRY( 45,100)   DRY( 45,101)   DRY( 45,102)   DRY( 45,103)   DRY( 45,104)   
    DRY( 45,105)   DRY( 45,106)   DRY( 45,107)   DRY( 45,108)   DRY( 45,109)   
    DRY( 45,110)   DRY( 45,111)   DRY( 45,112)   DRY( 45,113)   DRY( 45,114)   
    DRY( 45,115)   DRY( 45,116)   DRY( 45,117)   DRY( 45,118)   DRY( 45,119)   
    DRY( 45,120)   DRY( 45,121)   DRY( 45,122)   DRY( 45,123)   DRY( 45,124)   
    DRY( 45,125)   DRY( 45,126)   DRY( 45,127)   DRY( 45,128)   DRY( 45,129)   
    DRY( 45,130)   DRY( 45,131)   DRY( 45,132)   DRY( 45,133)   DRY( 45,134)   
    DRY( 45,135)   DRY( 45,136)   DRY( 45,137)   DRY( 45,138)   DRY( 45,139)   
    DRY( 45,140)   DRY( 45,141)   DRY( 45,142)   DRY( 45,143)   DRY( 45,144)   
    DRY( 45,158)   DRY( 45,159)   DRY( 45,160)   DRY( 45,161)   DRY( 45,162)   
    DRY( 45,163)   DRY( 45,164)   DRY( 45,165)   DRY( 45,166)   DRY( 45,167)   
    DRY( 45,168)   DRY( 45,169)   DRY( 45,170)   DRY( 45,171)   DRY( 45,172)   
    DRY( 45,173)   DRY( 45,174)   DRY( 45,175)   DRY( 45,176)   DRY( 45,177)   
    DRY( 45,185)   DRY( 45,186)   DRY( 45,187)   DRY( 45,188)   DRY( 45,189)   
    DRY( 45,190)   DRY( 45,191)   DRY( 45,192)   DRY( 46,  1)   DRY( 46,  2)   
    DRY( 46,  3)   DRY( 46,  4)   DRY( 46,  5)   DRY( 46,  6)   DRY( 46,  7)   
    DRY( 46,  8)   DRY( 46,  9)   DRY( 46, 10)   DRY( 46, 11)   DRY( 46, 12)   
    DRY( 46, 13)   DRY( 46, 14)   DRY( 46, 15)   DRY( 46, 16)   DRY( 46, 17)   
    DRY( 46, 18)   DRY( 46, 19)   DRY( 46, 20)   DRY( 46, 21)   DRY( 46, 22)   
    DRY( 46, 23)   DRY( 46, 24)   DRY( 46, 25)   DRY( 46, 26)   DRY( 46, 27)   
    DRY( 46, 28)   DRY( 46, 29)   DRY( 46, 30)   DRY( 46, 31)   DRY( 46, 32)   
    DRY( 46, 33)   DRY( 46, 34)   DRY( 46, 35)   DRY( 46, 36)   DRY( 46, 37)   
    DRY( 46, 38)   DRY( 46, 39)   DRY( 46, 40)   DRY( 46, 41)   DRY( 46, 42)   
    DRY( 46, 43)   DRY( 46, 44)   DRY( 46, 45)   DRY( 46, 46)   DRY( 46, 47)   
    DRY( 46, 48)   DRY( 46, 49)   DRY( 46, 50)   DRY( 46, 51)   DRY( 46, 52)   
    DRY( 46, 53)   DRY( 46, 54)   DRY( 46, 55)   DRY( 46, 56)   DRY( 46, 57)   
    DRY( 46, 58)   DRY( 46, 59)   DRY( 46, 60)   DRY( 46, 61)   DRY( 46, 62)   
    DRY( 46, 63)   DRY( 46, 64)   DRY( 46, 65)   DRY( 46, 66)   DRY( 46, 67)   
    DRY( 46, 68)   DRY( 46, 69)   DRY( 46, 70)   DRY( 46, 71)   DRY( 46, 72)   
    DRY( 46, 73)   DRY( 46, 74)   DRY( 46, 75)   DRY( 46, 76)   DRY( 46, 77)   
    DRY( 46, 78)   DRY( 46, 79)   DRY( 46, 80)   DRY( 46, 81)   DRY( 46, 82)   
    DRY( 46, 83)   DRY( 46, 84)   DRY( 46, 85)   DRY( 46, 86)   DRY( 46, 87)   
    DRY( 46, 88)   DRY( 46, 89)   DRY( 46, 90)   DRY( 46, 91)   DRY( 46, 92)   
    DRY( 46, 93)   DRY( 46, 94)   DRY( 46, 95)   DRY( 46, 96)   DRY( 46, 97)   
    DRY( 46, 98)   DRY( 46, 99)   DRY( 46,100)   DRY( 46,101)   DRY( 46,102)   
    DRY( 46,103)   DRY( 46,104)   DRY( 46,105)   DRY( 46,106)   DRY( 46,107)   
    DRY( 46,108)   DRY( 46,109)   DRY( 46,110)   DRY( 46,111)   DRY( 46,112)   
    DRY( 46,113)   DRY( 46,114)   DRY( 46,115)   DRY( 46,116)   DRY( 46,117)   
    DRY( 46,118)   DRY( 46,119)   DRY( 46,120)   DRY( 46,121)   DRY( 46,122)   
    DRY( 46,123)   DRY( 46,124)   DRY( 46,125)   DRY( 46,126)   DRY( 46,127)   
    DRY( 46,128)   DRY( 46,129)   DRY( 46,130)   DRY( 46,131)   DRY( 46,132)   
    DRY( 46,133)   DRY( 46,134)   DRY( 46,135)   DRY( 46,136)   DRY( 46,137)   
    DRY( 46,138)   DRY( 46,139)   DRY( 46,140)   DRY( 46,141)   DRY( 46,142)   
    DRY( 46,143)   DRY( 46,144)   DRY( 46,145)   DRY( 46,146)   DRY( 46,147)   
    DRY( 46,148)   DRY( 46,149)   DRY( 46,150)   DRY( 46,151)   DRY( 46,152)   
    DRY( 46,153)   DRY( 46,154)   DRY( 46,155)   DRY( 46,156)   DRY( 46,157)   
    DRY( 46,158)   DRY( 46,159)   DRY( 46,160)   DRY( 46,161)   DRY( 46,162)   
    DRY( 46,163)   DRY( 46,164)   DRY( 46,165)   DRY( 46,166)   DRY( 46,167)   
    DRY( 46,168)   DRY( 46,169)   DRY( 46,170)   DRY( 46,171)   DRY( 46,172)   
    DRY( 46,173)   DRY( 46,174)   DRY( 46,175)   DRY( 46,176)   DRY( 46,177)   
    DRY( 46,178)   DRY( 46,179)   DRY( 46,180)   DRY( 46,181)   DRY( 46,182)   
    DRY( 46,183)   DRY( 46,184)   DRY( 46,185)   DRY( 46,186)   DRY( 46,187)   
    DRY( 46,188)   DRY( 46,189)   DRY( 46,190)   DRY( 46,191)   DRY( 46,192)   
    DRY( 46,193)   DRY( 46,194)   DRY( 46,195)   DRY( 46,196)   DRY( 46,201)   
    DRY( 46,202)   DRY( 46,203)   DRY( 46,204)   DRY( 46,205)   DRY( 46,206)   
    DRY( 46,207)   DRY( 46,208)   DRY( 46,209)   DRY( 46,210)   DRY( 47,  1)   
    DRY( 47,  2)   DRY( 47,  3)   DRY( 47,  4)   DRY( 47,  5)   DRY( 47,  6)   
    DRY( 47,  7)   DRY( 47,  8)   DRY( 47,  9)   DRY( 47, 10)   DRY( 47, 11)   
    DRY( 47, 12)   DRY( 47, 13)   DRY( 47, 14)   DRY( 47, 15)   DRY( 47, 16)   
    DRY( 47, 17)   DRY( 47, 18)   DRY( 47, 19)   DRY( 47, 20)   DRY( 47, 21)   
    DRY( 47, 22)   DRY( 47, 23)   DRY( 47, 24)   DRY( 47, 25)   DRY( 47, 26)   
    DRY( 47, 27)   DRY( 47, 28)   DRY( 47, 29)   DRY( 47, 30)   DRY( 47, 31)   
    DRY( 47, 32)   DRY( 47, 33)   DRY( 47, 34)   DRY( 47, 35)   DRY( 47, 36)   
    DRY( 47, 37)   DRY( 47, 38)   DRY( 47, 39)   DRY( 47, 40)   DRY( 47, 41)   
    DRY( 47, 42)   DRY( 47, 43)   DRY( 47, 44)   DRY( 47, 45)   DRY( 47, 46)   
    DRY( 47, 47)   DRY( 47, 48)   DRY( 47, 49)   DRY( 47, 50)   DRY( 47, 51)   
    DRY( 47, 52)   DRY( 47, 53)   DRY( 47, 54)   DRY( 47, 55)   DRY( 47, 56)   
    DRY( 47, 57)   DRY( 47, 58)   DRY( 47, 59)   DRY( 47, 60)   DRY( 47, 61)   
    DRY( 47, 62)   DRY( 47, 63)   DRY( 47, 64)   DRY( 47, 65)   DRY( 47, 66)   
    DRY( 47, 67)   DRY( 47, 68)   DRY( 47, 69)   DRY( 47, 70)   DRY( 47, 71)   
    DRY( 47, 72)   DRY( 47, 73)   DRY( 47, 74)   DRY( 47, 75)   DRY( 47, 76)   
    DRY( 47, 77)   DRY( 47, 78)   DRY( 47, 79)   DRY( 47, 80)   DRY( 47, 81)   
    DRY( 47, 82)   DRY( 47, 83)   DRY( 47, 84)   DRY( 47, 85)   DRY( 47, 86)   
    DRY( 47, 87)   DRY( 47, 88)   DRY( 47, 89)   DRY( 47, 90)   DRY( 47, 91)   
    DRY( 47, 92)   DRY( 47, 93)   DRY( 47, 94)   DRY( 47, 95)   DRY( 47, 96)   
    DRY( 47, 97)   DRY( 47, 98)   DRY( 47, 99)   DRY( 47,100)   DRY( 47,101)   
    DRY( 47,102)   DRY( 47,103)   DRY( 47,104)   DRY( 47,105)   DRY( 47,106)   
    DRY( 47,107)   DRY( 47,108)   DRY( 47,109)   DRY( 47,110)   DRY( 47,111)   
    DRY( 47,112)   DRY( 47,113)   DRY( 47,114)   DRY( 47,115)   DRY( 47,116)   
    DRY( 47,117)   DRY( 47,118)   DRY( 47,119)   DRY( 47,120)   DRY( 47,121)   
    DRY( 47,122)   DRY( 47,123)   DRY( 47,124)   DRY( 47,125)   DRY( 47,126)   
    DRY( 47,127)   DRY( 47,128)   DRY( 47,129)   DRY( 47,130)   DRY( 47,131)   
    DRY( 47,132)   DRY( 47,133)   DRY( 47,134)   DRY( 47,135)   DRY( 47,136)   
    DRY( 47,137)   DRY( 47,138)   DRY( 47,139)   DRY( 47,140)   DRY( 47,141)   
    DRY( 47,142)   DRY( 47,143)   DRY( 47,144)   DRY( 47,145)   DRY( 47,146)   
    DRY( 47,147)   DRY( 47,148)   DRY( 47,149)   DRY( 47,150)   DRY( 47,151)   
    DRY( 47,152)   DRY( 47,153)   DRY( 47,154)   DRY( 47,155)   DRY( 47,156)   
    DRY( 47,157)   DRY( 47,158)   DRY( 47,159)   DRY( 47,160)   DRY( 47,161)   
    DRY( 47,162)   DRY( 47,163)   DRY( 47,164)   DRY( 47,165)   DRY( 47,166)   
    DRY( 47,167)   DRY( 47,168)   DRY( 47,169)   DRY( 47,170)   DRY( 47,171)   
    DRY( 47,172)   DRY( 47,173)   DRY( 47,174)   DRY( 47,175)   DRY( 47,176)   
    DRY( 47,177)   DRY( 47,178)   DRY( 47,179)   DRY( 47,180)   DRY( 47,181)   
    DRY( 47,182)   DRY( 47,183)   DRY( 47,184)   DRY( 47,185)   DRY( 47,186)   
    DRY( 47,187)   DRY( 47,188)   DRY( 47,189)   DRY( 47,190)   DRY( 47,191)   
    DRY( 47,192)   DRY( 47,193)   DRY( 47,194)   DRY( 47,195)   DRY( 47,196)   
    DRY( 47,197)   DRY( 47,198)   DRY( 47,199)   DRY( 47,200)   DRY( 47,201)   
    DRY( 47,202)   DRY( 47,203)   DRY( 47,204)   DRY( 47,205)   DRY( 47,206)   
    DRY( 47,207)   DRY( 47,208)   DRY( 47,209)   DRY( 47,210)   DRY( 47,211)   
    DRY( 47,212)   DRY( 47,213)   DRY( 47,214)   DRY( 48,  1)   DRY( 48,  2)   
    DRY( 48,  3)   DRY( 48,  4)   DRY( 48,  5)   DRY( 48,  6)   DRY( 48,  7)   
    DRY( 48,  8)   DRY( 48,  9)   DRY( 48, 10)   DRY( 48, 11)   DRY( 48, 12)   
    DRY( 48, 13)   DRY( 48, 14)   DRY( 48, 15)   DRY( 48, 16)   DRY( 48, 17)   
    DRY( 48, 18)   DRY( 48, 19)   DRY( 48, 20)   DRY( 48, 21)   DRY( 48, 22)   
    DRY( 48, 23)   DRY( 48, 24)   DRY( 48, 25)   DRY( 48, 26)   DRY( 48, 27)   
    DRY( 48, 28)   DRY( 48, 29)   DRY( 48, 30)   DRY( 48, 31)   DRY( 48, 32)   
    DRY( 48, 33)   DRY( 48, 34)   DRY( 48, 35)   DRY( 48, 36)   DRY( 48, 37)   
    DRY( 48, 38)   DRY( 48, 39)   DRY( 48, 40)   DRY( 48, 41)   DRY( 48, 42)   
    DRY( 48, 43)   DRY( 48, 44)   DRY( 48, 45)   DRY( 48, 46)   DRY( 48, 47)   
    DRY( 48, 48)   DRY( 48, 49)   DRY( 48, 50)   DRY( 48, 51)   DRY( 48, 52)   
    DRY( 48, 53)   DRY( 48, 54)   DRY( 48, 55)   DRY( 48, 56)   DRY( 48, 57)   
    DRY( 48, 58)   DRY( 48, 59)   DRY( 48, 60)   DRY( 48, 61)   DRY( 48, 62)   
    DRY( 48, 63)   DRY( 48, 64)   DRY( 48, 65)   DRY( 48, 66)   DRY( 48, 67)   
    DRY( 48, 68)   DRY( 48, 69)   DRY( 48, 70)   DRY( 48, 71)   DRY( 48, 72)   
    DRY( 48, 73)   DRY( 48, 74)   DRY( 48, 75)   DRY( 48, 76)   DRY( 48, 77)   
    DRY( 48, 78)   DRY( 48, 79)   DRY( 48, 80)   DRY( 48, 81)   DRY( 48, 82)   
    DRY( 48, 83)   DRY( 48, 84)   DRY( 48, 85)   DRY( 48, 86)   DRY( 48, 87)   
    DRY( 48, 88)   DRY( 48, 89)   DRY( 48, 90)   DRY( 48, 91)   DRY( 48, 92)   
    DRY( 48, 93)   DRY( 48, 94)   DRY( 48, 95)   DRY( 48, 96)   DRY( 48, 97)   
    DRY( 48, 98)   DRY( 48, 99)   DRY( 48,100)   DRY( 48,101)   DRY( 48,102)   
    DRY( 48,103)   DRY( 48,104)   DRY( 48,105)   DRY( 48,106)   DRY( 48,107)   
    DRY( 48,108)   DRY( 48,109)   DRY( 48,110)   DRY( 48,111)   DRY( 48,112)   
    DRY( 48,113)   DRY( 48,114)   DRY( 48,115)   DRY( 48,116)   DRY( 48,117)   
    DRY( 48,118)   DRY( 48,119)   DRY( 48,120)   DRY( 48,121)   DRY( 48,122)   
    DRY( 48,123)   DRY( 48,124)   DRY( 48,125)   DRY( 48,126)   DRY( 48,127)   
    DRY( 48,128)   DRY( 48,129)   DRY( 48,130)   DRY( 48,131)   DRY( 48,132)   
    DRY( 48,133)   DRY( 48,134)   DRY( 48,135)   DRY( 48,136)   DRY( 48,137)   
    DRY( 48,138)   DRY( 48,139)   DRY( 48,140)   DRY( 48,141)   DRY( 48,142)   
    DRY( 48,143)   DRY( 48,144)   DRY( 48,145)   DRY( 48,146)   DRY( 48,147)   
    DRY( 48,148)   DRY( 48,149)   DRY( 48,150)   DRY( 48,151)   DRY( 48,152)   
    DRY( 48,153)   DRY( 48,154)   DRY( 48,155)   DRY( 48,156)   DRY( 48,157)   
    DRY( 48,158)   DRY( 48,159)   DRY( 48,160)   DRY( 48,161)   DRY( 48,162)   
    DRY( 48,163)   DRY( 48,164)   DRY( 48,165)   DRY( 48,166)   DRY( 48,167)   
    DRY( 48,168)   DRY( 48,169)   DRY( 48,170)   DRY( 48,171)   DRY( 48,172)   
    DRY( 48,173)   DRY( 48,174)   DRY( 48,175)   DRY( 48,176)   DRY( 48,177)   
    DRY( 48,178)   DRY( 48,179)   DRY( 48,180)   DRY( 48,181)   DRY( 48,182)   
    DRY( 48,183)   DRY( 48,184)   DRY( 48,185)   DRY( 48,186)   DRY( 48,187)   
    DRY( 48,188)   DRY( 48,189)   DRY( 48,190)   DRY( 48,191)   DRY( 48,192)   
    DRY( 48,193)   DRY( 48,194)   DRY( 48,195)   DRY( 48,196)   DRY( 48,197)   
    DRY( 48,198)   DRY( 48,199)   DRY( 48,200)   DRY( 48,201)   DRY( 48,202)   
    DRY( 48,203)   DRY( 48,204)   DRY( 48,205)   DRY( 48,206)   DRY( 48,207)   
    DRY( 48,208)   DRY( 48,209)   DRY( 48,210)   DRY( 48,211)   DRY( 48,212)   
    DRY( 48,213)   DRY( 48,214)   DRY( 48,215)   DRY( 48,216)   

 CELL CONVERSIONS FOR ITER.=  2  LAYER= 16  STEP=  1  PERIOD=   1   (ROW,COL)
    DRY( 42,  1)   DRY( 42,  2)   DRY( 42,  3)   DRY( 42,  4)   DRY( 43,  1)   
    DRY( 43,  2)   DRY( 43,  3)   DRY( 43,  4)   DRY( 43,  5)   DRY( 43,  6)   
    DRY( 43,  7)   DRY( 43,  8)   DRY( 44,  1)   DRY( 44,  2)   DRY( 44,  3)   
    DRY( 44,  4)   DRY( 44,  5)   DRY( 44,  6)   DRY( 44,  7)   DRY( 44,  8)   
    DRY( 44,  9)   DRY( 44, 10)   DRY( 44, 11)   DRY( 44, 12)   DRY( 45,  1)   
    DRY( 45,  2)   DRY( 45,  3)   DRY( 45,  4)   DRY( 45,  5)   DRY( 45,  6)   
    DRY( 45,  7)   DRY( 45,  8)   DRY( 45,  9)   DRY( 45, 10)   DRY( 45, 11)   
    DRY( 45, 12)   DRY( 45, 13)   DRY( 45, 14)   DRY( 45, 15)   DRY( 45, 16)   
    DRY( 46,  1)   DRY( 46,  2)   DRY( 46,  3)   DRY( 46,  4)   DRY( 46,  5)   
    DRY( 46,  6)   DRY( 46,  7)   DRY( 46,  8)   DRY( 46,  9)   DRY( 46, 10)   
    DRY( 46, 11)   DRY( 46, 12)   DRY( 46, 13)   DRY( 46, 14)   DRY( 46, 15)   
    DRY( 46, 16)   DRY( 46, 17)   DRY( 46, 18)   DRY( 46, 19)   DRY( 46, 20)   
    DRY( 47,  1)   DRY( 47,  2)   DRY( 47,  3)   DRY( 47,  4)   DRY( 47,  5)   
    DRY( 47,  6)   DRY( 47,  7)   DRY( 47,  8)   DRY( 47,  9)   DRY( 47, 10)   
    DRY( 47, 11)   DRY( 47, 12)   DRY( 47, 13)   DRY( 47, 14)   DRY( 47, 15)   
    DRY( 47, 16)   DRY( 47, 17)   DRY( 47, 18)   DRY( 47, 19)   DRY( 47, 20)   
    DRY( 47, 21)   DRY( 47, 22)   DRY( 47, 23)   DRY( 47, 24)   DRY( 47, 25)   
    DRY( 47, 26)   DRY( 47, 27)   DRY( 47, 28)   DRY( 48,  1)   DRY( 48,  2)   
    DRY( 48,  3)   DRY( 48,  4)   DRY( 48,  5)   DRY( 48,  6)   DRY( 48,  7)   
    DRY( 48,  8)   DRY( 48,  9)   DRY( 48, 10)   DRY( 48, 11)   DRY( 48, 12)   
    DRY( 48, 13)   DRY( 48, 14)   DRY( 48, 15)   DRY( 48, 16)   DRY( 48, 17)   
    DRY( 48, 18)   DRY( 48, 19)   DRY( 48, 20)   DRY( 48, 21)   DRY( 48, 22)   
    DRY( 48, 23)   DRY( 48, 24)   DRY( 48, 25)   DRY( 48, 26)   DRY( 48, 27)   
    DRY( 48, 28)   DRY( 48, 29)   DRY( 48, 30)   DRY( 48, 31)   DRY( 48, 32)   
    DRY( 48, 33)   DRY( 48, 46)   DRY( 48, 47)   DRY( 48, 48)   DRY( 48, 49)   
    DRY( 48, 50)   DRY( 48, 51)   DRY( 48, 52)   DRY( 48, 53)   DRY( 48, 54)   
    DRY( 48, 55)   DRY( 48, 56)   DRY( 48, 57)   DRY( 48, 58)   DRY( 48, 59)   
    DRY( 48, 60)   DRY( 48, 61)   DRY( 48, 62)   DRY( 48, 63)   DRY( 48, 64)   
    DRY( 48, 65)   DRY( 48, 66)   DRY( 49,  1)   DRY( 49,  2)   DRY( 49,  3)   
    DRY( 49,  4)   DRY( 49,  5)   DRY( 49,  6)   DRY( 49,  7)   DRY( 49,  8)   
    DRY( 49,  9)   DRY( 49, 10)   DRY( 49, 11)   DRY( 49, 12)   DRY( 49, 13)   
    DRY( 49, 14)   DRY( 49, 15)   DRY( 49, 16)   DRY( 49, 17)   DRY( 49, 18)   
    DRY( 49, 19)   DRY( 49, 20)   DRY( 49, 21)   DRY( 49, 22)   DRY( 49, 23)   
    DRY( 49, 24)   DRY( 49, 25)   DRY( 49, 26)   DRY( 49, 27)   DRY( 49, 28)   
    DRY( 49, 29)   DRY( 49, 30)   DRY( 49, 31)   DRY( 49, 32)   DRY( 49, 33)   
    DRY( 49, 34)   DRY( 49, 35)   DRY( 49, 36)   DRY( 49, 37)   DRY( 49, 38)   
    DRY( 49, 39)   DRY( 49, 40)   DRY( 49, 41)   DRY( 49, 42)   DRY( 49, 43)   
    DRY( 49, 44)   DRY( 49, 45)   DRY( 49, 46)   DRY( 49, 47)   DRY( 49, 48)   
    DRY( 49, 49)   DRY( 49, 50)   DRY( 49, 51)   DRY( 49, 52)   DRY( 49, 53)   
    DRY( 49, 54)   DRY( 49, 55)   DRY( 49, 56)   DRY( 49, 57)   DRY( 49, 58)   
    DRY( 49, 59)   DRY( 49, 60)   DRY( 49, 61)   DRY( 49, 62)   DRY( 49, 63)   
    DRY( 49, 64)   DRY( 49, 65)   DRY( 49, 66)   DRY( 49, 67)   DRY( 49, 68)   
    DRY( 49, 69)   DRY( 49, 70)   DRY( 49, 71)   DRY( 49, 72)   DRY( 49, 73)   
    DRY( 49, 74)   DRY( 49, 75)   DRY( 49, 81)   DRY( 49, 82)   DRY( 49, 83)   
    DRY( 49, 84)   DRY( 49, 85)   DRY( 49, 86)   DRY( 49, 87)   DRY( 49,102)   
    DRY( 49,103)   DRY( 49,104)   DRY( 49,105)   DRY( 49,106)   DRY( 49,107)   
    DRY( 49,108)   DRY( 49,109)   DRY( 49,110)   DRY( 49,111)   DRY( 49,112)   
    DRY( 49,113)   DRY( 49,114)   DRY( 49,115)   DRY( 49,116)   DRY( 49,117)   
    DRY( 49,118)   DRY( 49,119)   DRY( 49,120)   DRY( 49,121)   DRY( 49,122)   
    DRY( 49,123)   DRY( 49,124)   DRY( 49,125)   DRY( 49,126)   DRY( 49,127)   
    DRY( 49,175)   DRY( 49,176)   DRY( 49,177)   DRY( 49,178)   DRY( 49,191)   
    DRY( 49,192)   DRY( 49,193)   DRY( 49,194)   DRY( 50,  1)   DRY( 50,  2)   
    DRY( 50,  3)   DRY( 50,  4)   DRY( 50,  5)   DRY( 50,  6)   DRY( 50,  7)   
    DRY( 50,  8)   DRY( 50,  9)   DRY( 50, 10)   DRY( 50, 11)   DRY( 50, 12)   
    DRY( 50, 13)   DRY( 50, 14)   DRY( 50, 15)   DRY( 50, 16)   DRY( 50, 17)   
    DRY( 50, 18)   DRY( 50, 19)   DRY( 50, 20)   DRY( 50, 21)   DRY( 50, 22)   
    DRY( 50, 23)   DRY( 50, 24)   DRY( 50, 25)   DRY( 50, 26)   DRY( 50, 27)   
    DRY( 50, 28)   DRY( 50, 29)   DRY( 50, 30)   DRY( 50, 31)   DRY( 50, 32)   
    DRY( 50, 33)   DRY( 50, 34)   DRY( 50, 35)   DRY( 50, 36)   DRY( 50, 37)   
    DRY( 50, 38)   DRY( 50, 39)   DRY( 50, 40)   DRY( 50, 41)   DRY( 50, 42)   
    DRY( 50, 43)   DRY( 50, 44)   DRY( 50, 45)   DRY( 50, 46)   DRY( 50, 47)   
    DRY( 50, 48)   DRY( 50, 49)   DRY( 50, 50)   DRY( 50, 51)   DRY( 50, 52)   
    DRY( 50, 53)   DRY( 50, 54)   DRY( 50, 55)   DRY( 50, 56)   DRY( 50, 57)   
    DRY( 50, 58)   DRY( 50, 59)   DRY( 50, 60)   DRY( 50, 61)   DRY( 50, 62)   
    DRY( 50, 63)   DRY( 50, 64)   DRY( 50, 65)   DRY( 50, 66)   DRY( 50, 67)   
    DRY( 50, 68)   DRY( 50, 69)   DRY( 50, 70)   DRY( 50, 71)   DRY( 50, 72)   
    DRY( 50, 73)   DRY( 50, 74)   DRY( 50, 75)   DRY( 50, 76)   DRY( 50, 77)   
    DRY( 50, 78)   DRY( 50, 79)   DRY( 50, 80)   DRY( 50, 81)   DRY( 50, 82)   
    DRY( 50, 83)   DRY( 50, 84)   DRY( 50, 85)   DRY( 50, 86)   DRY( 50, 87)   
    DRY( 50, 88)   DRY( 50, 89)   DRY( 50, 90)   DRY( 50, 91)   DRY( 50, 92)   
    DRY( 50, 93)   DRY( 50, 94)   DRY( 50, 95)   DRY( 50, 96)   DRY( 50, 97)   
    DRY( 50, 98)   DRY( 50, 99)   DRY( 50,100)   DRY( 50,101)   DRY( 50,102)   
    DRY( 50,103)   DRY( 50,104)   DRY( 50,105)   DRY( 50,106)   DRY( 50,107)   
    DRY( 50,108)   DRY( 50,109)   DRY( 50,110)   DRY( 50,111)   DRY( 50,112)   
    DRY( 50,113)   DRY( 50,114)   DRY( 50,115)   DRY( 50,116)   DRY( 50,117)   
    DRY( 50,118)   DRY( 50,119)   DRY( 50,120)   DRY( 50,121)   DRY( 50,122)   
    DRY( 50,123)   DRY( 50,124)   DRY( 50,125)   DRY( 50,126)   DRY( 50,127)   
    DRY( 50,128)   DRY( 50,129)   DRY( 50,130)   DRY( 50,131)   DRY( 50,132)   
    DRY( 50,133)   DRY( 50,134)   DRY( 50,135)   DRY( 50,136)   DRY( 50,137)   
    DRY( 50,138)   DRY( 50,139)   DRY( 50,140)   DRY( 50,141)   DRY( 50,142)   
    DRY( 50,143)   DRY( 50,144)   DRY( 50,145)   DRY( 50,146)   DRY( 50,147)   
    DRY( 50,148)   DRY( 50,149)   DRY( 50,150)   DRY( 50,151)   DRY( 50,158)   
    DRY( 50,159)   DRY( 50,160)   DRY( 50,161)   DRY( 50,162)   DRY( 50,163)   
    DRY( 50,164)   DRY( 50,165)   DRY( 50,166)   DRY( 50,167)   DRY( 50,168)   
    DRY( 50,169)   DRY( 50,170)   DRY( 50,171)   DRY( 50,172)   DRY( 50,173)   
    DRY( 50,174)   DRY( 50,175)   DRY( 50,176)   DRY( 50,177)   DRY( 50,178)   
    DRY( 50,179)   DRY( 50,180)   DRY( 50,181)   DRY( 50,182)   DRY( 50,183)   
    DRY( 50,184)   DRY( 50,185)   DRY( 50,186)   DRY( 50,187)   DRY( 50,188)   
    DRY( 50,189)   DRY( 50,190)   DRY( 50,191)   DRY( 50,192)   DRY( 50,193)   
    DRY( 50,194)   DRY( 50,195)   DRY( 50,196)   DRY( 50,197)   DRY( 50,198)   
    DRY( 50,206)   DRY( 50,207)   DRY( 50,208)   DRY( 50,209)   DRY( 50,210)   
    DRY( 50,211)   DRY( 50,212)   DRY( 51,  1)   DRY( 51,  2)   DRY( 51,  3)   
    DRY( 51,  4)   DRY( 51,  5)   DRY( 51,  6)   DRY( 51,  7)   DRY( 51,  8)   
    DRY( 51,  9)   DRY( 51, 10)   DRY( 51, 11)   DRY( 51, 12)   DRY( 51, 13)   
    DRY( 51, 14)   DRY( 51, 15)   DRY( 51, 16)   DRY( 51, 17)   DRY( 51, 18)   
    DRY( 51, 19)   DRY( 51, 20)   DRY( 51, 21)   DRY( 51, 22)   DRY( 51, 23)   
    DRY( 51, 24)   DRY( 51, 25)   DRY( 51, 26)   DRY( 51, 27)   DRY( 51, 28)   
    DRY( 51, 29)   DRY( 51, 30)   DRY( 51, 31)   DRY( 51, 32)   DRY( 51, 33)   
    DRY( 51, 34)   DRY( 51, 35)   DRY( 51, 36)   DRY( 51, 37)   DRY( 51, 38)   
    DRY( 51, 39)   DRY( 51, 40)   DRY( 51, 41)   DRY( 51, 42)   DRY( 51, 43)   
    DRY( 51, 44)   DRY( 51, 45)   DRY( 51, 46)   DRY( 51, 47)   DRY( 51, 48)   
    DRY( 51, 49)   DRY( 51, 50)   DRY( 51, 51)   DRY( 51, 52)   DRY( 51, 53)   
    DRY( 51, 54)   DRY( 51, 55)   DRY( 51, 56)   DRY( 51, 57)   DRY( 51, 58)   
    DRY( 51, 59)   DRY( 51, 60)   DRY( 51, 61)   DRY( 51, 62)   DRY( 51, 63)   
    DRY( 51, 64)   DRY( 51, 65)   DRY( 51, 66)   DRY( 51, 67)   DRY( 51, 68)   
    DRY( 51, 69)   DRY( 51, 70)   DRY( 51, 71)   DRY( 51, 72)   DRY( 51, 73)   
    DRY( 51, 74)   DRY( 51, 75)   DRY( 51, 76)   DRY( 51, 77)   DRY( 51, 78)   
    DRY( 51, 79)   DRY( 51, 80)   DRY( 51, 81)   DRY( 51, 82)   DRY( 51, 83)   
    DRY( 51, 84)   DRY( 51, 85)   DRY( 51, 86)   DRY( 51, 87)   DRY( 51, 88)   
    DRY( 51, 89)   DRY( 51, 90)   DRY( 51, 91)   DRY( 51, 92)   DRY( 51, 93)   
    DRY( 51, 94)   DRY( 51, 95)   DRY( 51, 96)   DRY( 51, 97)   DRY( 51, 98)   
    DRY( 51, 99)   DRY( 51,100)   DRY( 51,101)   DRY( 51,102)   DRY( 51,103)   
    DRY( 51,104)   DRY( 51,105)   DRY( 51,106)   DRY( 51,107)   DRY( 51,108)   
    DRY( 51,109)   DRY( 51,110)   DRY( 51,111)   DRY( 51,112)   DRY( 51,113)   
    DRY( 51,114)   DRY( 51,115)   DRY( 51,116)   DRY( 51,117)   DRY( 51,118)   
    DRY( 51,119)   DRY( 51,120)   DRY( 51,121)   DRY( 51,122)   DRY( 51,123)   
    DRY( 51,124)   DRY( 51,125)   DRY( 51,126)   DRY( 51,127)   DRY( 51,128)   
    DRY( 51,129)   DRY( 51,130)   DRY( 51,131)   DRY( 51,132)   DRY( 51,133)   
    DRY( 51,134)   DRY( 51,135)   DRY( 51,136)   DRY( 51,137)   DRY( 51,138)   
    DRY( 51,139)   DRY( 51,140)   DRY( 51,141)   DRY( 51,142)   DRY( 51,143)   
    DRY( 51,144)   DRY( 51,145)   DRY( 51,146)   DRY( 51,147)   DRY( 51,148)   
    DRY( 51,149)   DRY( 51,150)   DRY( 51,151)   DRY( 51,152)   DRY( 51,153)   
    DRY( 51,154)   DRY( 51,155)   DRY( 51,156)   DRY( 51,157)   DRY( 51,158)   
    DRY( 51,159)   DRY( 51,160)   DRY( 51,161)   DRY( 51,162)   DRY( 51,163)   
    DRY( 51,164)   DRY( 51,165)   DRY( 51,166)   DRY( 51,167)   DRY( 51,168)   
    DRY( 51,169)   DRY( 51,170)   DRY( 51,171)   DRY( 51,172)   DRY( 51,173)   
    DRY( 51,174)   DRY( 51,175)   DRY( 51,176)   DRY( 51,177)   DRY( 51,178)   
    DRY( 51,179)   DRY( 51,180)   DRY( 51,181)   DRY( 51,182)   DRY( 51,183)   
    DRY( 51,184)   DRY( 51,185)   DRY( 51,186)   DRY( 51,187)   DRY( 51,188)   
    DRY( 51,189)   DRY( 51,190)   DRY( 51,191)   DRY( 51,192)   DRY( 51,193)   
    DRY( 51,194)   DRY( 51,195)   DRY( 51,196)   DRY( 51,197)   DRY( 51,198)   
    DRY( 51,199)   DRY( 51,200)   DRY( 51,201)   DRY( 51,202)   DRY( 51,203)   
    DRY( 51,204)   DRY( 51,205)   DRY( 51,206)   DRY( 51,207)   DRY( 51,208)   
    DRY( 51,209)   DRY( 51,210)   DRY( 51,211)   DRY( 51,212)   DRY( 51,213)   
    DRY( 51,214)   DRY( 52,  1)   DRY( 52,  2)   DRY( 52,  3)   DRY( 52,  4)   
    DRY( 52,  5)   DRY( 52,  6)   DRY( 52,  7)   DRY( 52,  8)   DRY( 52,  9)   
    DRY( 52, 10)   DRY( 52, 11)   DRY( 52, 12)   DRY( 52, 13)   DRY( 52, 14)   
    DRY( 52, 15)   DRY( 52, 16)   DRY( 52, 17)   DRY( 52, 18)   DRY( 52, 19)   
    DRY( 52, 20)   DRY( 52, 21)   DRY( 52, 22)   DRY( 52, 23)   DRY( 52, 24)   
    DRY( 52, 25)   DRY( 52, 26)   DRY( 52, 27)   DRY( 52, 28)   DRY( 52, 29)   
    DRY( 52, 30)   DRY( 52, 31)   DRY( 52, 32)   DRY( 52, 33)   DRY( 52, 34)   
    DRY( 52, 35)   DRY( 52, 36)   DRY( 52, 37)   DRY( 52, 38)   DRY( 52, 39)   
    DRY( 52, 40)   DRY( 52, 41)   DRY( 52, 42)   DRY( 52, 43)   DRY( 52, 44)   
    DRY( 52, 45)   DRY( 52, 46)   DRY( 52, 47)   DRY( 52, 48)   DRY( 52, 49)   
    DRY( 52, 50)   DRY( 52, 51)   DRY( 52, 52)   DRY( 52, 53)   DRY( 52, 54)   
    DRY( 52, 55)   DRY( 52, 56)   DRY( 52, 57)   DRY( 52, 58)   DRY( 52, 59)   
    DRY( 52, 60)   DRY( 52, 61)   DRY( 52, 62)   DRY( 52, 63)   DRY( 52, 64)   
    DRY( 52, 65)   DRY( 52, 66)   DRY( 52, 67)   DRY( 52, 68)   DRY( 52, 69)   
    DRY( 52, 70)   DRY( 52, 71)   DRY( 52, 72)   DRY( 52, 73)   DRY( 52, 74)   
    DRY( 52, 75)   DRY( 52, 76)   DRY( 52, 77)   DRY( 52, 78)   DRY( 52, 79)   
    DRY( 52, 80)   DRY( 52, 81)   DRY( 52, 82)   DRY( 52, 83)   DRY( 52, 84)   
    DRY( 52, 85)   DRY( 52, 86)   DRY( 52, 87)   DRY( 52, 88)   DRY( 52, 89)   
    DRY( 52, 90)   DRY( 52, 91)   DRY( 52, 92)   DRY( 52, 93)   DRY( 52, 94)   
    DRY( 52, 95)   DRY( 52, 96)   DRY( 52, 97)   DRY( 52, 98)   DRY( 52, 99)   
    DRY( 52,100)   DRY( 52,101)   DRY( 52,102)   DRY( 52,103)   DRY( 52,104)   
    DRY( 52,105)   DRY( 52,106)   DRY( 52,107)   DRY( 52,108)   DRY( 52,109)   
    DRY( 52,110)   DRY( 52,111)   DRY( 52,112)   DRY( 52,113)   DRY( 52,114)   
    DRY( 52,115)   DRY( 52,116)   DRY( 52,117)   DRY( 52,118)   DRY( 52,119)   
    DRY( 52,120)   DRY( 52,121)   DRY( 52,122)   DRY( 52,123)   DRY( 52,124)   
    DRY( 52,125)   DRY( 52,126)   DRY( 52,127)   DRY( 52,128)   DRY( 52,129)   
    DRY( 52,130)   DRY( 52,131)   DRY( 52,132)   DRY( 52,133)   DRY( 52,134)   
    DRY( 52,135)   DRY( 52,136)   DRY( 52,137)   DRY( 52,138)   DRY( 52,139)   
    DRY( 52,140)   DRY( 52,141)   DRY( 52,142)   DRY( 52,143)   DRY( 52,144)   
    DRY( 52,145)   DRY( 52,146)   DRY( 52,147)   DRY( 52,148)   DRY( 52,149)   
    DRY( 52,150)   DRY( 52,151)   DRY( 52,152)   DRY( 52,153)   DRY( 52,154)   
    DRY( 52,155)   DRY( 52,156)   DRY( 52,157)   DRY( 52,158)   DRY( 52,159)   
    DRY( 52,160)   DRY( 52,161)   DRY( 52,162)   DRY( 52,163)   DRY( 52,164)   
    DRY( 52,165)   DRY( 52,166)   DRY( 52,167)   DRY( 52,168)   DRY( 52,169)   
    DRY( 52,170)   DRY( 52,171)   DRY( 52,172)   DRY( 52,173)   DRY( 52,174)   
    DRY( 52,175)   DRY( 52,176)   DRY( 52,177)   DRY( 52,178)   DRY( 52,179)   
    DRY( 52,180)   DRY( 52,181)   DRY( 52,182)   DRY( 52,183)   DRY( 52,184)   
    DRY( 52,185)   DRY( 52,186)   DRY( 52,187)   DRY( 52,188)   DRY( 52,189)   
    DRY( 52,190)   DRY( 52,191)   DRY( 52,192)   DRY( 52,193)   DRY( 52,194)   
    DRY( 52,195)   DRY( 52,196)   DRY( 52,197)   DRY( 52,198)   DRY( 52,199)   
    DRY( 52,200)   DRY( 52,201)   DRY( 52,202)   DRY( 52,203)   DRY( 52,204)   
    DRY( 52,205)   DRY( 52,206)   DRY( 52,207)   DRY( 52,208)   DRY( 52,209)   
    DRY( 52,210)   DRY( 52,211)   DRY( 52,212)   DRY( 52,213)   DRY( 52,214)   
    DRY( 52,215)   DRY( 52,216)   DRY( 53,  1)   DRY( 53,  2)   DRY( 53,  3)   
    DRY( 53,  4)   DRY( 53,  5)   DRY( 53,  6)   DRY( 53,  7)   DRY( 53,  8)   
    DRY( 53,  9)   DRY( 53, 10)   DRY( 53, 11)   DRY( 53, 12)   DRY( 53, 13)   
    DRY( 53, 14)   DRY( 53, 15)   DRY( 53, 16)   DRY( 53, 17)   DRY( 53, 18)   
    DRY( 53, 19)   DRY( 53, 20)   DRY( 53, 21)   DRY( 53, 22)   DRY( 53, 23)   
    DRY( 53, 24)   DRY( 53, 25)   DRY( 53, 26)   DRY( 53, 27)   DRY( 53, 28)   
    DRY( 53, 29)   DRY( 53, 30)   DRY( 53, 31)   DRY( 53, 32)   DRY( 53, 33)   
    DRY( 53, 34)   DRY( 53, 35)   DRY( 53, 36)   DRY( 53, 37)   DRY( 53, 38)   
    DRY( 53, 39)   DRY( 53, 40)   DRY( 53, 41)   DRY( 53, 42)   DRY( 53, 43)   
    DRY( 53, 44)   DRY( 53, 45)   DRY( 53, 46)   DRY( 53, 47)   DRY( 53, 48)   
    DRY( 53, 49)   DRY( 53, 50)   DRY( 53, 51)   DRY( 53, 52)   DRY( 53, 53)   
    DRY( 53, 54)   DRY( 53, 55)   DRY( 53, 56)   DRY( 53, 57)   DRY( 53, 58)   
    DRY( 53, 59)   DRY( 53, 60)   DRY( 53, 61)   DRY( 53, 62)   DRY( 53, 63)   
    DRY( 53, 64)   DRY( 53, 65)   DRY( 53, 66)   DRY( 53, 67)   DRY( 53, 68)   
    DRY( 53, 69)   DRY( 53, 70)   DRY( 53, 71)   DRY( 53, 72)   DRY( 53, 73)   
    DRY( 53, 74)   DRY( 53, 75)   DRY( 53, 76)   DRY( 53, 77)   DRY( 53, 78)   
    DRY( 53, 79)   DRY( 53, 80)   DRY( 53, 81)   DRY( 53, 82)   DRY( 53, 83)   
    DRY( 53, 84)   DRY( 53, 85)   DRY( 53, 86)   DRY( 53, 87)   DRY( 53, 88)   
    DRY( 53, 89)   DRY( 53, 90)   DRY( 53, 91)   DRY( 53, 92)   DRY( 53, 93)   
    DRY( 53, 94)   DRY( 53, 95)   DRY( 53, 96)   DRY( 53, 97)   DRY( 53, 98)   
    DRY( 53, 99)   DRY( 53,100)   DRY( 53,101)   DRY( 53,102)   DRY( 53,103)   
    DRY( 53,104)   DRY( 53,105)   DRY( 53,106)   DRY( 53,107)   DRY( 53,108)   
    DRY( 53,109)   DRY( 53,110)   DRY( 53,111)   DRY( 53,112)   DRY( 53,113)   
    DRY( 53,114)   DRY( 53,115)   DRY( 53,116)   DRY( 53,117)   DRY( 53,118)   
    DRY( 53,119)   DRY( 53,120)   DRY( 53,121)   DRY( 53,122)   DRY( 53,123)   
    DRY( 53,124)   DRY( 53,125)   DRY( 53,126)   DRY( 53,127)   DRY( 53,128)   
    DRY( 53,129)   DRY( 53,130)   DRY( 53,131)   DRY( 53,132)   DRY( 53,133)   
    DRY( 53,134)   DRY( 53,135)   DRY( 53,136)   DRY( 53,137)   DRY( 53,138)   
    DRY( 53,139)   DRY( 53,140)   DRY( 53,141)   DRY( 53,142)   DRY( 53,143)   
    DRY( 53,144)   DRY( 53,145)   DRY( 53,146)   DRY( 53,147)   DRY( 53,148)   
    DRY( 53,149)   DRY( 53,150)   DRY( 53,151)   DRY( 53,152)   DRY( 53,153)   
    DRY( 53,154)   DRY( 53,155)   DRY( 53,156)   DRY( 53,157)   DRY( 53,158)   
    DRY( 53,159)   DRY( 53,160)   DRY( 53,161)   DRY( 53,162)   DRY( 53,163)   
    DRY( 53,164)   DRY( 53,165)   DRY( 53,166)   DRY( 53,167)   DRY( 53,168)   
    DRY( 53,169)   DRY( 53,170)   DRY( 53,171)   DRY( 53,172)   DRY( 53,173)   
    DRY( 53,174)   DRY( 53,175)   DRY( 53,176)   DRY( 53,177)   DRY( 53,178)   
    DRY( 53,179)   DRY( 53,180)   DRY( 53,181)   DRY( 53,182)   DRY( 53,183)   
    DRY( 53,184)   DRY( 53,185)   DRY( 53,186)   DRY( 53,187)   DRY( 53,188)   
    DRY( 53,189)   DRY( 53,190)   DRY( 53,191)   DRY( 53,192)   DRY( 53,193)   
    DRY( 53,194)   DRY( 53,195)   DRY( 53,196)   DRY( 53,197)   DRY( 53,198)   
    DRY( 53,199)   DRY( 53,200)   DRY( 53,201)   DRY( 53,202)   DRY( 53,203)   
    DRY( 53,204)   DRY( 53,205)   DRY( 53,206)   DRY( 53,207)   DRY( 53,208)   
    DRY( 53,209)   DRY( 53,210)   DRY( 53,211)   DRY( 53,212)   DRY( 53,213)   
    DRY( 53,214)   DRY( 53,215)   DRY( 53,216)   DRY( 53,217)   DRY( 53,218)   
    DRY( 53,219)   DRY( 53,220)   DRY( 54,  1)   DRY( 54,  2)   DRY( 54,  3)   
    DRY( 54,  4)   DRY( 54,  5)   DRY( 54,  6)   DRY( 54,  7)   DRY( 54,  8)   
    DRY( 54,  9)   DRY( 54, 10)   DRY( 54, 11)   DRY( 54, 12)   DRY( 54, 13)   
    DRY( 54, 14)   DRY( 54, 15)   DRY( 54, 16)   DRY( 54, 17)   DRY( 54, 18)   
    DRY( 54, 19)   DRY( 54, 20)   DRY( 54, 21)   DRY( 54, 22)   DRY( 54, 23)   
    DRY( 54, 24)   DRY( 54, 25)   DRY( 54, 26)   DRY( 54, 27)   DRY( 54, 28)   
    DRY( 54, 29)   DRY( 54, 30)   DRY( 54, 31)   DRY( 54, 32)   DRY( 54, 33)   
    DRY( 54, 34)   DRY( 54, 35)   DRY( 54, 36)   DRY( 54, 37)   DRY( 54, 38)   
    DRY( 54, 39)   DRY( 54, 40)   DRY( 54, 41)   DRY( 54, 42)   DRY( 54, 43)   
    DRY( 54, 44)   DRY( 54, 45)   DRY( 54, 46)   DRY( 54, 47)   DRY( 54, 48)   
    DRY( 54, 49)   DRY( 54, 50)   DRY( 54, 51)   DRY( 54, 52)   DRY( 54, 53)   
    DRY( 54, 54)   DRY( 54, 55)   DRY( 54, 56)   DRY( 54, 57)   DRY( 54, 58)   
    DRY( 54, 59)   DRY( 54, 60)   DRY( 54, 61)   DRY( 54, 62)   DRY( 54, 63)   
    DRY( 54, 64)   DRY( 54, 65)   DRY( 54, 66)   DRY( 54, 67)   DRY( 54, 68)   
    DRY( 54, 69)   DRY( 54, 70)   DRY( 54, 71)   DRY( 54, 72)   DRY( 54, 73)   
    DRY( 54, 74)   DRY( 54, 75)   DRY( 54, 76)   DRY( 54, 77)   DRY( 54, 78)   
    DRY( 54, 79)   DRY( 54, 80)   DRY( 54, 81)   DRY( 54, 82)   DRY( 54, 83)   
    DRY( 54, 84)   DRY( 54, 85)   DRY( 54, 86)   DRY( 54, 87)   DRY( 54, 88)   
    DRY( 54, 89)   DRY( 54, 90)   DRY( 54, 91)   DRY( 54, 92)   DRY( 54, 93)   
    DRY( 54, 94)   DRY( 54, 95)   DRY( 54, 96)   DRY( 54, 97)   DRY( 54, 98)   
    DRY( 54, 99)   DRY( 54,100)   DRY( 54,101)   DRY( 54,102)   DRY( 54,103)   
    DRY( 54,104)   DRY( 54,105)   DRY( 54,106)   DRY( 54,107)   DRY( 54,108)   
    DRY( 54,109)   DRY( 54,110)   DRY( 54,111)   DRY( 54,112)   DRY( 54,113)   
    DRY( 54,114)   DRY( 54,115)   DRY( 54,116)   DRY( 54,117)   DRY( 54,118)   
    DRY( 54,119)   DRY( 54,120)   DRY( 54,121)   DRY( 54,122)   DRY( 54,123)   
    DRY( 54,124)   DRY( 54,125)   DRY( 54,126)   DRY( 54,127)   DRY( 54,128)   
    DRY( 54,129)   DRY( 54,130)   DRY( 54,131)   DRY( 54,132)   DRY( 54,133)   
    DRY( 54,134)   DRY( 54,135)   DRY( 54,136)   DRY( 54,137)   DRY( 54,138)   
    DRY( 54,139)   DRY( 54,140)   DRY( 54,141)   DRY( 54,142)   DRY( 54,143)   
    DRY( 54,144)   DRY( 54,145)   DRY( 54,146)   DRY( 54,147)   DRY( 54,148)   
    DRY( 54,149)   DRY( 54,150)   DRY( 54,151)   DRY( 54,152)   DRY( 54,153)   
    DRY( 54,154)   DRY( 54,155)   DRY( 54,156)   DRY( 54,157)   DRY( 54,158)   
    DRY( 54,159)   DRY( 54,160)   DRY( 54,161)   DRY( 54,162)   DRY( 54,163)   
    DRY( 54,164)   DRY( 54,165)   DRY( 54,166)   DRY( 54,167)   DRY( 54,168)   
    DRY( 54,169)   DRY( 54,170)   DRY( 54,171)   DRY( 54,172)   DRY( 54,173)   
    DRY( 54,174)   DRY( 54,175)   DRY( 54,176)   DRY( 54,177)   DRY( 54,178)   
    DRY( 54,179)   DRY( 54,180)   DRY( 54,181)   DRY( 54,182)   DRY( 54,183)   
    DRY( 54,184)   DRY( 54,185)   DRY( 54,186)   DRY( 54,187)   DRY( 54,188)   
    DRY( 54,189)   DRY( 54,190)   DRY( 54,191)   DRY( 54,192)   DRY( 54,193)   
    DRY( 54,194)   DRY( 54,195)   DRY( 54,196)   DRY( 54,197)   DRY( 54,198)   
    DRY( 54,199)   DRY( 54,200)   DRY( 54,201)   DRY( 54,202)   DRY( 54,203)   
    DRY( 54,204)   DRY( 54,205)   DRY( 54,206)   DRY( 54,207)   DRY( 54,208)   
    DRY( 54,209)   DRY( 54,210)   DRY( 54,211)   DRY( 54,212)   DRY( 54,213)   
    DRY( 54,214)   DRY( 54,215)   DRY( 54,216)   DRY( 54,217)   DRY( 54,218)   
    DRY( 54,219)   DRY( 54,220)   DRY( 55,  1)   DRY( 55,  2)   DRY( 55,  3)   
    DRY( 55,  4)   DRY( 55,  5)   DRY( 55,  6)   DRY( 55,  7)   DRY( 55,  8)   
    DRY( 55,  9)   DRY( 55, 10)   DRY( 55, 11)   DRY( 55, 12)   DRY( 55, 13)   
    DRY( 55, 14)   DRY( 55, 15)   DRY( 55, 16)   DRY( 55, 17)   DRY( 55, 18)   
    DRY( 55, 19)   DRY( 55, 20)   DRY( 55, 21)   DRY( 55, 22)   DRY( 55, 23)   
    DRY( 55, 24)   DRY( 55, 25)   DRY( 55, 26)   DRY( 55, 27)   DRY( 55, 28)   
    DRY( 55, 29)   DRY( 55, 30)   DRY( 55, 31)   DRY( 55, 32)   DRY( 55, 33)   
    DRY( 55, 34)   DRY( 55, 35)   DRY( 55, 36)   DRY( 55, 37)   DRY( 55, 38)   
    DRY( 55, 39)   DRY( 55, 40)   DRY( 55, 41)   DRY( 55, 42)   DRY( 55, 43)   
    DRY( 55, 44)   DRY( 55, 45)   DRY( 55, 46)   DRY( 55, 47)   DRY( 55, 48)   
    DRY( 55, 49)   DRY( 55, 50)   DRY( 55, 51)   DRY( 55, 52)   DRY( 55, 53)   
    DRY( 55, 54)   DRY( 55, 55)   DRY( 55, 56)   DRY( 55, 57)   DRY( 55, 58)   
    DRY( 55, 59)   DRY( 55, 60)   DRY( 55, 61)   DRY( 55, 62)   DRY( 55, 63)   
    DRY( 55, 64)   DRY( 55, 65)   DRY( 55, 66)   DRY( 55, 67)   DRY( 55, 68)   
    DRY( 55, 69)   DRY( 55, 70)   DRY( 55, 71)   DRY( 55, 72)   DRY( 55, 73)   
    DRY( 55, 74)   DRY( 55, 75)   DRY( 55, 76)   DRY( 55, 77)   DRY( 55, 78)   
    DRY( 55, 79)   DRY( 55, 80)   DRY( 55, 81)   DRY( 55, 82)   DRY( 55, 83)   
    DRY( 55, 84)   DRY( 55, 85)   DRY( 55, 86)   DRY( 55, 87)   DRY( 55, 88)   
    DRY( 55, 89)   DRY( 55, 90)   DRY( 55, 91)   DRY( 55, 92)   DRY( 55, 93)   
    DRY( 55, 94)   DRY( 55, 95)   DRY( 55, 96)   DRY( 55, 97)   DRY( 55, 98)   
    DRY( 55, 99)   DRY( 55,100)   DRY( 55,101)   DRY( 55,102)   DRY( 55,103)   
    DRY( 55,104)   DRY( 55,105)   DRY( 55,106)   DRY( 55,107)   DRY( 55,108)   
    DRY( 55,109)   DRY( 55,110)   DRY( 55,111)   DRY( 55,112)   DRY( 55,113)   
    DRY( 55,114)   DRY( 55,115)   DRY( 55,116)   DRY( 55,117)   DRY( 55,118)   
    DRY( 55,119)   DRY( 55,120)   DRY( 55,121)   DRY( 55,122)   DRY( 55,123)   
    DRY( 55,124)   DRY( 55,125)   DRY( 55,126)   DRY( 55,127)   DRY( 55,128)   
    DRY( 55,129)   DRY( 55,130)   DRY( 55,131)   DRY( 55,132)   DRY( 55,133)   
    DRY( 55,134)   DRY( 55,135)   DRY( 55,136)   DRY( 55,137)   DRY( 55,138)   
    DRY( 55,139)   DRY( 55,140)   DRY( 55,141)   DRY( 55,142)   DRY( 55,143)   
    DRY( 55,144)   DRY( 55,145)   DRY( 55,146)   DRY( 55,147)   DRY( 55,148)   
    DRY( 55,149)   DRY( 55,150)   DRY( 55,151)   DRY( 55,152)   DRY( 55,153)   
    DRY( 55,154)   DRY( 55,155)   DRY( 55,156)   DRY( 55,157)   DRY( 55,158)   
    DRY( 55,159)   DRY( 55,160)   DRY( 55,161)   DRY( 55,162)   DRY( 55,163)   
    DRY( 55,164)   DRY( 55,165)   DRY( 55,166)   DRY( 55,167)   DRY( 55,168)   
    DRY( 55,169)   DRY( 55,170)   DRY( 55,171)   DRY( 55,172)   DRY( 55,173)   
    DRY( 55,174)   DRY( 55,175)   DRY( 55,176)   DRY( 55,177)   DRY( 55,178)   
    DRY( 55,179)   DRY( 55,180)   DRY( 55,181)   DRY( 55,182)   DRY( 55,183)   
    DRY( 55,184)   DRY( 55,185)   DRY( 55,186)   DRY( 55,187)   DRY( 55,188)   
    DRY( 55,189)   DRY( 55,190)   DRY( 55,191)   DRY( 55,192)   DRY( 55,193)   
    DRY( 55,194)   DRY( 55,195)   DRY( 55,196)   DRY( 55,197)   DRY( 55,198)   
    DRY( 55,199)   DRY( 55,200)   DRY( 55,201)   DRY( 55,202)   DRY( 55,203)   
    DRY( 55,204)   DRY( 55,205)   DRY( 55,206)   DRY( 55,207)   DRY( 55,208)   
    DRY( 55,209)   DRY( 55,210)   DRY( 55,211)   DRY( 55,212)   DRY( 55,213)   
    DRY( 55,214)   DRY( 55,215)   DRY( 55,216)   DRY( 55,217)   DRY( 55,218)   
    DRY( 55,219)   DRY( 55,220)   DRY( 56,  1)   DRY( 56,  2)   DRY( 56,  3)   
    DRY( 56,  4)   DRY( 56,  5)   DRY( 56,  6)   DRY( 56,  7)   DRY( 56,  8)   
    DRY( 56,  9)   DRY( 56, 10)   DRY( 56, 11)   DRY( 56, 12)   DRY( 56, 13)   
    DRY( 56, 14)   DRY( 56, 15)   DRY( 56, 16)   DRY( 56, 17)   DRY( 56, 18)   
    DRY( 56, 19)   DRY( 56, 20)   DRY( 56, 21)   DRY( 56, 22)   DRY( 56, 23)   
    DRY( 56, 24)   DRY( 56, 25)   DRY( 56, 26)   DRY( 56, 27)   DRY( 56, 28)   
    DRY( 56, 29)   DRY( 56, 30)   DRY( 56, 31)   DRY( 56, 32)   DRY( 56, 33)   
    DRY( 56, 34)   DRY( 56, 35)   DRY( 56, 36)   DRY( 56, 37)   DRY( 56, 38)   
    DRY( 56, 39)   DRY( 56, 40)   DRY( 56, 41)   DRY( 56, 42)   DRY( 56, 43)   
    DRY( 56, 44)   DRY( 56, 45)   DRY( 56, 46)   DRY( 56, 47)   DRY( 56, 48)   
    DRY( 56, 49)   DRY( 56, 50)   DRY( 56, 51)   DRY( 56, 52)   DRY( 56, 53)   
    DRY( 56, 54)   DRY( 56, 55)   DRY( 56, 56)   DRY( 56, 57)   DRY( 56, 58)   
    DRY( 56, 59)   DRY( 56, 60)   DRY( 56, 61)   DRY( 56, 62)   DRY( 56, 63)   
    DRY( 56, 64)   DRY( 56, 65)   DRY( 56, 66)   DRY( 56, 67)   DRY( 56, 68)   
    DRY( 56, 69)   DRY( 56, 70)   DRY( 56, 71)   DRY( 56, 72)   DRY( 56, 73)   
    DRY( 56, 74)   DRY( 56, 75)   DRY( 56, 76)   DRY( 56, 77)   DRY( 56, 78)   
    DRY( 56, 79)   DRY( 56, 80)   DRY( 56, 81)   DRY( 56, 82)   DRY( 56, 83)   
    DRY( 56, 84)   DRY( 56, 85)   DRY( 56, 86)   DRY( 56, 87)   DRY( 56, 88)   
    DRY( 56, 89)   DRY( 56, 90)   DRY( 56, 91)   DRY( 56, 92)   DRY( 56, 93)   
    DRY( 56, 94)   DRY( 56, 95)   DRY( 56, 96)   DRY( 56, 97)   DRY( 56, 98)   
    DRY( 56, 99)   DRY( 56,100)   DRY( 56,101)   DRY( 56,102)   DRY( 56,103)   
    DRY( 56,104)   DRY( 56,105)   DRY( 56,106)   DRY( 56,107)   DRY( 56,108)   
    DRY( 56,109)   DRY( 56,110)   DRY( 56,111)   DRY( 56,112)   DRY( 56,113)   
    DRY( 56,114)   DRY( 56,115)   DRY( 56,116)   DRY( 56,117)   DRY( 56,118)   
    DRY( 56,119)   DRY( 56,120)   DRY( 56,121)   DRY( 56,122)   DRY( 56,123)   
    DRY( 56,124)   DRY( 56,125)   DRY( 56,126)   DRY( 56,127)   DRY( 56,128)   
    DRY( 56,129)   DRY( 56,130)   DRY( 56,131)   DRY( 56,132)   DRY( 56,133)   
    DRY( 56,134)   DRY( 56,135)   DRY( 56,136)   DRY( 56,137)   DRY( 56,138)   
    DRY( 56,139)   DRY( 56,140)   DRY( 56,141)   DRY( 56,142)   DRY( 56,143)   
    DRY( 56,144)   DRY( 56,145)   DRY( 56,146)   DRY( 56,147)   DRY( 56,148)   
    DRY( 56,149)   DRY( 56,150)   DRY( 56,151)   DRY( 56,152)   DRY( 56,153)   
    DRY( 56,154)   DRY( 56,155)   DRY( 56,156)   DRY( 56,157)   DRY( 56,158)   
    DRY( 56,159)   DRY( 56,160)   DRY( 56,161)   DRY( 56,162)   DRY( 56,163)   
    DRY( 56,164)   DRY( 56,165)   DRY( 56,166)   DRY( 56,167)   DRY( 56,168)   
    DRY( 56,169)   DRY( 56,170)   DRY( 56,171)   DRY( 56,172)   DRY( 56,173)   
    DRY( 56,174)   DRY( 56,175)   DRY( 56,176)   DRY( 56,177)   DRY( 56,178)   
    DRY( 56,179)   DRY( 56,180)   DRY( 56,181)   DRY( 56,182)   DRY( 56,183)   
    DRY( 56,184)   DRY( 56,185)   DRY( 56,186)   DRY( 56,187)   DRY( 56,188)   
    DRY( 56,189)   DRY( 56,190)   DRY( 56,191)   DRY( 56,192)   DRY( 56,193)   
    DRY( 56,194)   DRY( 56,195)   DRY( 56,196)   DRY( 56,197)   DRY( 56,198)   
    DRY( 56,199)   DRY( 56,200)   DRY( 56,201)   DRY( 56,202)   DRY( 56,203)   
    DRY( 56,204)   DRY( 56,205)   DRY( 56,206)   DRY( 56,207)   DRY( 56,208)   
    DRY( 56,209)   DRY( 56,210)   DRY( 56,211)   DRY( 56,212)   DRY( 56,213)   
    DRY( 56,214)   DRY( 56,215)   DRY( 56,216)   DRY( 56,217)   DRY( 56,218)   
    DRY( 56,219)   DRY( 56,220)   

 CELL CONVERSIONS FOR ITER.=  2  LAYER= 17  STEP=  1  PERIOD=   1   (ROW,COL)
    DRY( 48,  1)   DRY( 48,  2)   DRY( 49,  1)   DRY( 49,  2)   DRY( 49,  3)   
    DRY( 49,  4)   DRY( 49,  5)   DRY( 49,  6)   DRY( 49,  7)   DRY( 49,  8)   
    DRY( 49,  9)   DRY( 49, 10)   DRY( 49, 11)   DRY( 49, 12)   DRY( 49, 13)   
    DRY( 49, 14)   DRY( 49, 15)   DRY( 49, 16)   DRY( 49, 17)   DRY( 50,  1)   
    DRY( 50,  2)   DRY( 50,  3)   DRY( 50,  4)   DRY( 50,  5)   DRY( 50,  6)   
    DRY( 50,  7)   DRY( 50,  8)   DRY( 50,  9)   DRY( 50, 10)   DRY( 50, 11)   
    DRY( 50, 12)   DRY( 50, 13)   DRY( 50, 14)   DRY( 50, 15)   DRY( 50, 16)   
    DRY( 50, 17)   DRY( 50, 18)   DRY( 50, 19)   DRY( 50, 20)   DRY( 51,  1)   
    DRY( 51,  2)   DRY( 51,  3)   DRY( 51,  4)   DRY( 51,  5)   DRY( 51,  6)   
    DRY( 51,  7)   DRY( 51,  8)   DRY( 51,  9)   DRY( 51, 10)   DRY( 51, 11)   
    DRY( 51, 12)   DRY( 51, 13)   DRY( 51, 14)   DRY( 51, 15)   DRY( 51, 16)   
    DRY( 51, 17)   DRY( 51, 18)   DRY( 51, 19)   DRY( 51, 20)   DRY( 51, 21)   
    DRY( 51, 22)   DRY( 51, 23)   DRY( 51, 24)   DRY( 51, 25)   DRY( 52,  1)   
    DRY( 52,  2)   DRY( 52,  3)   DRY( 52,  4)   DRY( 52,  5)   DRY( 52,  6)   
    DRY( 52,  7)   DRY( 52,  8)   DRY( 52,  9)   DRY( 52, 10)   DRY( 52, 11)   
    DRY( 52, 12)   DRY( 52, 13)   DRY( 52, 14)   DRY( 52, 15)   DRY( 52, 16)   
    DRY( 52, 17)   DRY( 52, 18)   DRY( 52, 19)   DRY( 52, 20)   DRY( 52, 21)   
    DRY( 52, 22)   DRY( 52, 23)   DRY( 52, 24)   DRY( 52, 25)   DRY( 52, 26)   
    DRY( 52, 27)   DRY( 52, 28)   DRY( 52, 29)   DRY( 52, 30)   DRY( 52, 31)   
    DRY( 52, 32)   DRY( 52, 33)   DRY( 52, 34)   DRY( 52, 35)   DRY( 52, 36)   
    DRY( 52, 37)   DRY( 52, 59)   DRY( 52, 60)   DRY( 52, 61)   DRY( 52, 62)   
    DRY( 52, 63)   DRY( 52, 64)   DRY( 52, 65)   DRY( 52, 66)   DRY( 52, 67)   
    DRY( 52, 68)   DRY( 52, 69)   DRY( 53,  1)   DRY( 53,  2)   DRY( 53,  3)   
    DRY( 53,  4)   DRY( 53,  5)   DRY( 53,  6)   DRY( 53,  7)   DRY( 53,  8)   
    DRY( 53,  9)   DRY( 53, 10)   DRY( 53, 11)   DRY( 53, 12)   DRY( 53, 13)   
    DRY( 53, 14)   DRY( 53, 15)   DRY( 53, 16)   DRY( 53, 17)   DRY( 53, 18)   
    DRY( 53, 19)   DRY( 53, 20)   DRY( 53, 21)   DRY( 53, 22)   DRY( 53, 23)   
    DRY( 53, 24)   DRY( 53, 25)   DRY( 53, 26)   DRY( 53, 27)   DRY( 53, 28)   
    DRY( 53, 29)   DRY( 53, 30)   DRY( 53, 31)   DRY( 53, 32)   DRY( 53, 33)   
    DRY( 53, 34)   DRY( 53, 35)   DRY( 53, 36)   DRY( 53, 37)   DRY( 53, 38)   
    DRY( 53, 39)   DRY( 53, 40)   DRY( 53, 41)   DRY( 53, 42)   DRY( 53, 47)   
    DRY( 53, 48)   DRY( 53, 49)   DRY( 53, 50)   DRY( 53, 51)   DRY( 53, 52)   
    DRY( 53, 53)   DRY( 53, 54)   DRY( 53, 55)   DRY( 53, 56)   DRY( 53, 57)   
    DRY( 53, 58)   DRY( 53, 59)   DRY( 53, 60)   DRY( 53, 61)   DRY( 53, 62)   
    DRY( 53, 63)   DRY( 53, 64)   DRY( 53, 65)   DRY( 53, 66)   DRY( 53, 67)   
    DRY( 53, 68)   DRY( 53, 69)   DRY( 53, 70)   DRY( 53, 71)   DRY( 53, 72)   
    DRY( 53, 73)   DRY( 53, 74)   DRY( 53,110)   DRY( 53,111)   DRY( 53,112)   
    DRY( 53,113)   DRY( 53,114)   DRY( 53,115)   DRY( 53,116)   DRY( 53,117)   
    DRY( 53,118)   DRY( 53,119)   DRY( 53,120)   DRY( 53,121)   DRY( 53,122)   
    DRY( 54,  1)   DRY( 54,  2)   DRY( 54,  3)   DRY( 54,  4)   DRY( 54,  5)   
    DRY( 54,  6)   DRY( 54,  7)   DRY( 54,  8)   DRY( 54,  9)   DRY( 54, 10)   
    DRY( 54, 11)   DRY( 54, 12)   DRY( 54, 13)   DRY( 54, 14)   DRY( 54, 15)   
    DRY( 54, 16)   DRY( 54, 17)   DRY( 54, 18)   DRY( 54, 19)   DRY( 54, 20)   
    DRY( 54, 21)   DRY( 54, 22)   DRY( 54, 23)   DRY( 54, 24)   DRY( 54, 25)   
    DRY( 54, 26)   DRY( 54, 27)   DRY( 54, 28)   DRY( 54, 29)   DRY( 54, 30)   
    DRY( 54, 31)   DRY( 54, 32)   DRY( 54, 33)   DRY( 54, 34)   DRY( 54, 35)   
    DRY( 54, 36)   DRY( 54, 37)   DRY( 54, 38)   DRY( 54, 39)   DRY( 54, 40)   
    DRY( 54, 41)   DRY( 54, 42)   DRY( 54, 43)   DRY( 54, 44)   DRY( 54, 45)   
    DRY( 54, 46)   DRY( 54, 47)   DRY( 54, 48)   DRY( 54, 49)   DRY( 54, 50)   
    DRY( 54, 51)   DRY( 54, 52)   DRY( 54, 53)   DRY( 54, 54)   DRY( 54, 55)   
    DRY( 54, 56)   DRY( 54, 57)   DRY( 54, 58)   DRY( 54, 59)   DRY( 54, 60)   
    DRY( 54, 61)   DRY( 54, 62)   DRY( 54, 63)   DRY( 54, 64)   DRY( 54, 65)   
    DRY( 54, 66)   DRY( 54, 67)   DRY( 54, 68)   DRY( 54, 69)   DRY( 54, 70)   
    DRY( 54, 71)   DRY( 54, 72)   DRY( 54, 73)   DRY( 54, 74)   DRY( 54, 75)   
    DRY( 54, 76)   DRY( 54, 77)   DRY( 54, 78)   DRY( 54, 79)   DRY( 54, 80)   
    DRY( 54, 81)   DRY( 54, 82)   DRY( 54, 83)   DRY( 54, 84)   DRY( 54, 85)   
    DRY( 54, 86)   DRY( 54, 87)   DRY( 54, 88)   DRY( 54, 89)   DRY( 54, 90)   
    DRY( 54, 91)   DRY( 54, 92)   DRY( 54, 93)   DRY( 54, 94)   DRY( 54, 95)   
    DRY( 54,106)   DRY( 54,107)   DRY( 54,108)   DRY( 54,109)   DRY( 54,110)   
    DRY( 54,111)   DRY( 54,112)   DRY( 54,113)   DRY( 54,114)   DRY( 54,115)   
    DRY( 54,116)   DRY( 54,117)   DRY( 54,118)   DRY( 54,119)   DRY( 54,120)   
    DRY( 54,121)   DRY( 54,122)   DRY( 54,123)   DRY( 54,124)   DRY( 54,125)   
    DRY( 54,126)   DRY( 54,127)   DRY( 54,128)   DRY( 54,129)   DRY( 54,130)   
    DRY( 54,131)   DRY( 54,132)   DRY( 54,176)   DRY( 54,177)   DRY( 54,178)   
    DRY( 54,179)   DRY( 54,180)   DRY( 54,181)   DRY( 54,182)   DRY( 54,183)   
    DRY( 54,184)   DRY( 54,185)   DRY( 54,186)   DRY( 54,193)   DRY( 54,194)   
    DRY( 54,195)   DRY( 54,196)   DRY( 54,197)   DRY( 54,198)   DRY( 54,199)   
    DRY( 54,200)   DRY( 55,  1)   DRY( 55,  2)   DRY( 55,  3)   DRY( 55,  4)   
    DRY( 55,  5)   DRY( 55,  6)   DRY( 55,  7)   DRY( 55,  8)   DRY( 55,  9)   
    DRY( 55, 10)   DRY( 55, 11)   DRY( 55, 12)   DRY( 55, 13)   DRY( 55, 14)   
    DRY( 55, 15)   DRY( 55, 16)   DRY( 55, 17)   DRY( 55, 18)   DRY( 55, 19)   
    DRY( 55, 20)   DRY( 55, 21)   DRY( 55, 22)   DRY( 55, 23)   DRY( 55, 24)   
    DRY( 55, 25)   DRY( 55, 26)   DRY( 55, 27)   DRY( 55, 28)   DRY( 55, 29)   
    DRY( 55, 30)   DRY( 55, 31)   DRY( 55, 32)   DRY( 55, 33)   DRY( 55, 34)   
    DRY( 55, 35)   DRY( 55, 36)   DRY( 55, 37)   DRY( 55, 38)   DRY( 55, 39)   
    DRY( 55, 40)   DRY( 55, 41)   DRY( 55, 42)   DRY( 55, 43)   DRY( 55, 44)   
    DRY( 55, 45)   DRY( 55, 46)   DRY( 55, 47)   DRY( 55, 48)   DRY( 55, 49)   
    DRY( 55, 50)   DRY( 55, 51)   DRY( 55, 52)   DRY( 55, 53)   DRY( 55, 54)   
    DRY( 55, 55)   DRY( 55, 56)   DRY( 55, 57)   DRY( 55, 58)   DRY( 55, 59)   
    DRY( 55, 60)   DRY( 55, 61)   DRY( 55, 62)   DRY( 55, 63)   DRY( 55, 64)   
    DRY( 55, 65)   DRY( 55, 66)   DRY( 55, 67)   DRY( 55, 68)   DRY( 55, 69)   
    DRY( 55, 70)   DRY( 55, 71)   DRY( 55, 72)   DRY( 55, 73)   DRY( 55, 74)   
    DRY( 55, 75)   DRY( 55, 76)   DRY( 55, 77)   DRY( 55, 78)   DRY( 55, 79)   
    DRY( 55, 80)   DRY( 55, 81)   DRY( 55, 82)   DRY( 55, 83)   DRY( 55, 84)   
    DRY( 55, 85)   DRY( 55, 86)   DRY( 55, 87)   DRY( 55, 88)   DRY( 55, 89)   
    DRY( 55, 90)   DRY( 55, 91)   DRY( 55, 92)   DRY( 55, 93)   DRY( 55, 94)   
    DRY( 55, 95)   DRY( 55, 96)   DRY( 55, 97)   DRY( 55, 98)   DRY( 55, 99)   
    DRY( 55,100)   DRY( 55,101)   DRY( 55,102)   DRY( 55,103)   DRY( 55,104)   
    DRY( 55,105)   DRY( 55,106)   DRY( 55,107)   DRY( 55,108)   DRY( 55,109)   
    DRY( 55,110)   DRY( 55,111)   DRY( 55,112)   DRY( 55,113)   DRY( 55,114)   
    DRY( 55,115)   DRY( 55,116)   DRY( 55,117)   DRY( 55,118)   DRY( 55,119)   
    DRY( 55,120)   DRY( 55,121)   DRY( 55,122)   DRY( 55,123)   DRY( 55,124)   
    DRY( 55,125)   DRY( 55,126)   DRY( 55,127)   DRY( 55,128)   DRY( 55,129)   
    DRY( 55,130)   DRY( 55,131)   DRY( 55,132)   DRY( 55,133)   DRY( 55,134)   
    DRY( 55,135)   DRY( 55,136)   DRY( 55,137)   DRY( 55,146)   DRY( 55,147)   
    DRY( 55,148)   DRY( 55,149)   DRY( 55,150)   DRY( 55,151)   DRY( 55,152)   
    DRY( 55,153)   DRY( 55,164)   DRY( 55,165)   DRY( 55,166)   DRY( 55,167)   
    DRY( 55,168)   DRY( 55,169)   DRY( 55,170)   DRY( 55,171)   DRY( 55,172)   
    DRY( 55,173)   DRY( 55,174)   DRY( 55,175)   DRY( 55,176)   DRY( 55,177)   
    DRY( 55,178)   DRY( 55,179)   DRY( 55,180)   DRY( 55,181)   DRY( 55,182)   
    DRY( 55,183)   DRY( 55,184)   DRY( 55,185)   DRY( 55,186)   DRY( 55,187)   
    DRY( 55,188)   DRY( 55,189)   DRY( 55,190)   DRY( 55,191)   DRY( 55,192)   
    DRY( 55,193)   DRY( 55,194)   DRY( 55,195)   DRY( 55,196)   DRY( 55,197)   
    DRY( 55,198)   DRY( 55,199)   DRY( 55,200)   DRY( 55,201)   DRY( 55,202)   
    DRY( 55,210)   DRY( 55,211)   DRY( 55,212)   DRY( 55,213)   DRY( 55,214)   
    DRY( 56,  1)   DRY( 56,  2)   DRY( 56,  3)   DRY( 56,  4)   DRY( 56,  5)   
    DRY( 56,  6)   DRY( 56,  7)   DRY( 56,  8)   DRY( 56,  9)   DRY( 56, 10)   
    DRY( 56, 11)   DRY( 56, 12)   DRY( 56, 13)   DRY( 56, 14)   DRY( 56, 15)   
    DRY( 56, 16)   DRY( 56, 17)   DRY( 56, 18)   DRY( 56, 19)   DRY( 56, 20)   
    DRY( 56, 21)   DRY( 56, 22)   DRY( 56, 23)   DRY( 56, 24)   DRY( 56, 25)   
    DRY( 56, 26)   DRY( 56, 27)   DRY( 56, 28)   DRY( 56, 29)   DRY( 56, 30)   
    DRY( 56, 31)   DRY( 56, 32)   DRY( 56, 33)   DRY( 56, 34)   DRY( 56, 35)   
    DRY( 56, 36)   DRY( 56, 37)   DRY( 56, 38)   DRY( 56, 39)   DRY( 56, 40)   
    DRY( 56, 41)   DRY( 56, 42)   DRY( 56, 43)   DRY( 56, 44)   DRY( 56, 45)   
    DRY( 56, 46)   DRY( 56, 47)   DRY( 56, 48)   DRY( 56, 49)   DRY( 56, 50)   
    DRY( 56, 51)   DRY( 56, 52)   DRY( 56, 53)   DRY( 56, 54)   DRY( 56, 55)   
    DRY( 56, 56)   DRY( 56, 57)   DRY( 56, 58)   DRY( 56, 59)   DRY( 56, 60)   
    DRY( 56, 61)   DRY( 56, 62)   DRY( 56, 63)   DRY( 56, 64)   DRY( 56, 65)   
    DRY( 56, 66)   DRY( 56, 67)   DRY( 56, 68)   DRY( 56, 69)   DRY( 56, 70)   
    DRY( 56, 71)   DRY( 56, 72)   DRY( 56, 73)   DRY( 56, 74)   DRY( 56, 75)   
    DRY( 56, 76)   DRY( 56, 77)   DRY( 56, 78)   DRY( 56, 79)   DRY( 56, 80)   
    DRY( 56, 81)   DRY( 56, 82)   DRY( 56, 83)   DRY( 56, 84)   DRY( 56, 85)   
    DRY( 56, 86)   DRY( 56, 87)   DRY( 56, 88)   DRY( 56, 89)   DRY( 56, 90)   
    DRY( 56, 91)   DRY( 56, 92)   DRY( 56, 93)   DRY( 56, 94)   DRY( 56, 95)   
    DRY( 56, 96)   DRY( 56, 97)   DRY( 56, 98)   DRY( 56, 99)   DRY( 56,100)   
    DRY( 56,101)   DRY( 56,102)   DRY( 56,103)   DRY( 56,104)   DRY( 56,105)   
    DRY( 56,106)   DRY( 56,107)   DRY( 56,108)   DRY( 56,109)   DRY( 56,110)   
    DRY( 56,111)   DRY( 56,112)   DRY( 56,113)   DRY( 56,114)   DRY( 56,115)   
    DRY( 56,116)   DRY( 56,117)   DRY( 56,118)   DRY( 56,119)   DRY( 56,120)   
    DRY( 56,121)   DRY( 56,122)   DRY( 56,123)   DRY( 56,124)   DRY( 56,125)   
    DRY( 56,126)   DRY( 56,127)   DRY( 56,128)   DRY( 56,129)   DRY( 56,130)   
    DRY( 56,131)   DRY( 56,132)   DRY( 56,133)   DRY( 56,134)   DRY( 56,135)   
    DRY( 56,136)   DRY( 56,137)   DRY( 56,138)   DRY( 56,139)   DRY( 56,140)   
    DRY( 56,141)   DRY( 56,142)   DRY( 56,143)   DRY( 56,144)   DRY( 56,145)   
    DRY( 56,146)   DRY( 56,147)   DRY( 56,148)   DRY( 56,149)   DRY( 56,150)   
    DRY( 56,151)   DRY( 56,152)   DRY( 56,153)   DRY( 56,154)   DRY( 56,155)   
    DRY( 56,156)   DRY( 56,157)   DRY( 56,162)   DRY( 56,163)   DRY( 56,164)   
    DRY( 56,165)   DRY( 56,166)   DRY( 56,167)   DRY( 56,168)   DRY( 56,169)   
    DRY( 56,170)   DRY( 56,171)   DRY( 56,172)   DRY( 56,173)   DRY( 56,174)   
    DRY( 56,175)   DRY( 56,176)   DRY( 56,177)   DRY( 56,178)   DRY( 56,179)   
    DRY( 56,180)   DRY( 56,181)   DRY( 56,182)   DRY( 56,183)   DRY( 56,184)   
    DRY( 56,185)   DRY( 56,186)   DRY( 56,187)   DRY( 56,188)   DRY( 56,189)   
    DRY( 56,190)   DRY( 56,191)   DRY( 56,192)   DRY( 56,193)   DRY( 56,194)   
    DRY( 56,195)   DRY( 56,196)   DRY( 56,197)   DRY( 56,198)   DRY( 56,199)   
    DRY( 56,200)   DRY( 56,201)   DRY( 56,202)   DRY( 56,203)   DRY( 56,204)   
    DRY( 56,205)   DRY( 56,209)   DRY( 56,210)   DRY( 56,211)   DRY( 56,212)   
    DRY( 56,213)   DRY( 56,214)   DRY( 56,215)   DRY( 56,216)   

 CELL CONVERSIONS FOR ITER.=  2  LAYER= 18  STEP=  1  PERIOD=   1   (ROW,COL)
    DRY( 53,  1)   DRY( 53,  2)   DRY( 53,  3)   DRY( 53, 17)   DRY( 53, 18)   
    DRY( 54,  1)   DRY( 54,  2)   DRY( 54,  3)   DRY( 54,  4)   DRY( 54,  5)   
    DRY( 54, 15)   DRY( 54, 16)   DRY( 54, 17)   DRY( 54, 18)   DRY( 54, 19)   
    DRY( 54, 20)   DRY( 54, 21)   DRY( 54, 22)   DRY( 55,  1)   DRY( 55,  2)   
    DRY( 55,  3)   DRY( 55,  4)   DRY( 55,  5)   DRY( 55,  6)   DRY( 55,  7)   
    DRY( 55, 15)   DRY( 55, 16)   DRY( 55, 17)   DRY( 55, 18)   DRY( 55, 19)   
    DRY( 55, 20)   DRY( 55, 21)   DRY( 55, 22)   DRY( 55, 23)   DRY( 55, 24)   
    DRY( 56,  1)   DRY( 56,  2)   DRY( 56,  3)   DRY( 56,  4)   DRY( 56,  5)   
    DRY( 56,  6)   DRY( 56,  7)   DRY( 56,  8)   DRY( 56,  9)   DRY( 56, 14)   
    DRY( 56, 15)   DRY( 56, 16)   DRY( 56, 17)   DRY( 56, 18)   DRY( 56, 19)   
    DRY( 56, 20)   DRY( 56, 21)   DRY( 56, 22)   DRY( 56, 23)   DRY( 56, 24)   
    DRY( 56, 25)   DRY( 56, 26)   

 CELL CONVERSIONS FOR ITER.=  2  LAYER= 19  STEP=  1  PERIOD=   1   (ROW,COL)
    DRY( 58,  1)   DRY( 58,  2)   DRY( 59,  1)   DRY( 59,  2)   DRY( 59,  3)   
    DRY( 59,  4)   DRY( 59,  5)   DRY( 59, 21)   DRY( 59, 22)   DRY( 59, 23)   
    DRY( 59, 24)   DRY( 59, 25)   DRY( 59, 26)   DRY( 60,  1)   DRY( 60,  2)   
    DRY( 60,  3)   DRY( 60,  4)   DRY( 60,  5)   DRY( 60,  6)   DRY( 60,  7)   
    DRY( 60,  8)   DRY( 60,  9)   DRY( 60, 19)   DRY( 60, 20)   DRY( 60, 21)   
    DRY( 60, 22)   DRY( 60, 23)   DRY( 60, 24)   DRY( 60, 25)   DRY( 60, 26)   
    DRY( 60, 27)   DRY( 60, 28)   DRY( 60, 29)   DRY( 61,  1)   DRY( 61,  2)   
    DRY( 61,  3)   DRY( 61,  4)   DRY( 61,  5)   DRY( 61,  6)   DRY( 61,  7)   
    DRY( 61,  8)   DRY( 61,  9)   DRY( 61, 10)   DRY( 61, 11)   DRY( 61, 12)   
    DRY( 61, 13)   DRY( 61, 14)   DRY( 61, 16)   DRY( 61, 17)   DRY( 61, 18)   
    DRY( 61, 19)   DRY( 61, 20)   DRY( 61, 21)   DRY( 61, 22)   DRY( 61, 23)   
    DRY( 61, 24)   DRY( 61, 25)   DRY( 61, 26)   DRY( 61, 27)   DRY( 61, 28)   
    DRY( 61, 29)   DRY( 61, 30)   DRY( 61, 31)   DRY( 61, 32)   DRY( 61, 33)   
    DRY( 61, 74)   DRY( 61, 75)   DRY( 62,  1)   DRY( 62,  2)   DRY( 62,  3)   
    DRY( 62,  4)   DRY( 62,  5)   DRY( 62,  6)   DRY( 62,  7)   DRY( 62,  8)   
    DRY( 62,  9)   DRY( 62, 10)   DRY( 62, 11)   DRY( 62, 12)   DRY( 62, 13)   
    DRY( 62, 14)   DRY( 62, 15)   DRY( 62, 16)   DRY( 62, 17)   DRY( 62, 18)   
    DRY( 62, 19)   DRY( 62, 20)   DRY( 62, 21)   DRY( 62, 22)   DRY( 62, 23)   
    DRY( 62, 24)   DRY( 62, 25)   DRY( 62, 26)   DRY( 62, 27)   DRY( 62, 28)   
    DRY( 62, 29)   DRY( 62, 30)   DRY( 62, 31)   DRY( 62, 32)   DRY( 62, 33)   
    DRY( 62, 34)   DRY( 62, 35)   DRY( 62, 36)   DRY( 62, 37)   DRY( 62, 38)   
    DRY( 62, 39)   DRY( 62, 40)   DRY( 62, 41)   DRY( 62, 42)   DRY( 62, 43)   
    DRY( 62, 44)   DRY( 62, 45)   DRY( 62, 46)   DRY( 62, 47)   DRY( 62, 48)   
    DRY( 62, 69)   DRY( 62, 70)   DRY( 62, 71)   DRY( 62, 72)   DRY( 62, 73)   
    DRY( 62, 74)   DRY( 62, 75)   DRY( 62, 76)   DRY( 62, 77)   DRY( 62, 78)   
    DRY( 62, 79)   DRY( 62, 80)   DRY( 62, 81)   DRY( 63,  1)   DRY( 63,  2)   
    DRY( 63,  3)   DRY( 63,  4)   DRY( 63,  5)   DRY( 63,  6)   DRY( 63,  7)   
    DRY( 63,  8)   DRY( 63,  9)   DRY( 63, 10)   DRY( 63, 11)   DRY( 63, 12)   
    DRY( 63, 13)   DRY( 63, 14)   DRY( 63, 15)   DRY( 63, 16)   DRY( 63, 17)   
    DRY( 63, 18)   DRY( 63, 19)   DRY( 63, 20)   DRY( 63, 21)   DRY( 63, 22)   
    DRY( 63, 23)   DRY( 63, 24)   DRY( 63, 25)   DRY( 63, 26)   DRY( 63, 27)   
    DRY( 63, 28)   DRY( 63, 29)   DRY( 63, 30)   DRY( 63, 31)   DRY( 63, 32)   
    DRY( 63, 33)   DRY( 63, 34)   DRY( 63, 35)   DRY( 63, 36)   DRY( 63, 37)   
    DRY( 63, 38)   DRY( 63, 39)   DRY( 63, 40)   DRY( 63, 41)   DRY( 63, 42)   
    DRY( 63, 43)   DRY( 63, 44)   DRY( 63, 45)   DRY( 63, 46)   DRY( 63, 47)   
    DRY( 63, 48)   DRY( 63, 49)   DRY( 63, 50)   DRY( 63, 51)   DRY( 63, 52)   
    DRY( 63, 53)   DRY( 63, 54)   DRY( 63, 55)   DRY( 63, 56)   DRY( 63, 57)   
    DRY( 63, 58)   DRY( 63, 59)   DRY( 63, 60)   DRY( 63, 61)   DRY( 63, 62)   
    DRY( 63, 63)   DRY( 63, 64)   DRY( 63, 65)   DRY( 63, 66)   DRY( 63, 67)   
    DRY( 63, 68)   DRY( 63, 69)   DRY( 63, 70)   DRY( 63, 71)   DRY( 63, 72)   
    DRY( 63, 73)   DRY( 63, 74)   DRY( 63, 75)   DRY( 63, 76)   DRY( 63, 77)   
    DRY( 63, 78)   DRY( 63, 79)   DRY( 63, 80)   DRY( 63, 81)   DRY( 63, 82)   
    DRY( 63, 83)   DRY( 63, 84)   DRY( 63,117)   DRY( 63,118)   DRY( 63,119)   
    DRY( 63,120)   DRY( 63,121)   DRY( 63,122)   DRY( 63,123)   DRY( 63,124)   
    DRY( 63,125)   DRY( 63,126)   DRY( 63,127)   DRY( 63,128)   DRY( 63,129)   
    DRY( 63,130)   DRY( 63,131)   DRY( 63,132)   DRY( 63,133)   DRY( 63,134)   
    DRY( 63,135)   DRY( 63,136)   DRY( 63,137)   DRY( 63,138)   DRY( 63,139)   
    DRY( 63,189)   DRY( 63,190)   DRY( 63,191)   DRY( 63,192)   DRY( 63,193)   
    DRY( 63,194)   DRY( 64,  1)   DRY( 64,  2)   DRY( 64,  3)   DRY( 64,  4)   
    DRY( 64,  5)   DRY( 64,  6)   DRY( 64,  7)   DRY( 64,  8)   DRY( 64,  9)   
    DRY( 64, 10)   DRY( 64, 11)   DRY( 64, 12)   DRY( 64, 13)   DRY( 64, 14)   
    DRY( 64, 15)   DRY( 64, 16)   DRY( 64, 17)   DRY( 64, 18)   DRY( 64, 19)   
    DRY( 64, 20)   DRY( 64, 21)   DRY( 64, 22)   DRY( 64, 23)   DRY( 64, 24)   
    DRY( 64, 25)   DRY( 64, 26)   DRY( 64, 27)   DRY( 64, 28)   DRY( 64, 29)   
    DRY( 64, 30)   DRY( 64, 31)   DRY( 64, 32)   DRY( 64, 33)   DRY( 64, 34)   
    DRY( 64, 35)   DRY( 64, 36)   DRY( 64, 37)   DRY( 64, 38)   DRY( 64, 39)   
    DRY( 64, 40)   DRY( 64, 41)   DRY( 64, 42)   DRY( 64, 43)   DRY( 64, 44)   
    DRY( 64, 45)   DRY( 64, 46)   DRY( 64, 47)   DRY( 64, 48)   DRY( 64, 49)   
    DRY( 64, 50)   DRY( 64, 51)   DRY( 64, 52)   DRY( 64, 53)   DRY( 64, 54)   
    DRY( 64, 55)   DRY( 64, 56)   DRY( 64, 57)   DRY( 64, 58)   DRY( 64, 59)   
    DRY( 64, 60)   DRY( 64, 61)   DRY( 64, 62)   DRY( 64, 63)   DRY( 64, 64)   
    DRY( 64, 65)   DRY( 64, 66)   DRY( 64, 67)   DRY( 64, 68)   DRY( 64, 69)   
    DRY( 64, 70)   DRY( 64, 71)   DRY( 64, 72)   DRY( 64, 73)   DRY( 64, 74)   
    DRY( 64, 75)   DRY( 64, 76)   DRY( 64, 77)   DRY( 64, 78)   DRY( 64, 79)   
    DRY( 64, 80)   DRY( 64, 81)   DRY( 64, 82)   DRY( 64, 83)   DRY( 64, 84)   
    DRY( 64, 85)   DRY( 64, 86)   DRY( 64, 95)   DRY( 64, 96)   DRY( 64, 97)   
    DRY( 64, 98)   DRY( 64, 99)   DRY( 64,100)   DRY( 64,101)   DRY( 64,102)   
    DRY( 64,103)   DRY( 64,115)   DRY( 64,116)   DRY( 64,117)   DRY( 64,118)   
    DRY( 64,119)   DRY( 64,120)   DRY( 64,121)   DRY( 64,122)   DRY( 64,123)   
    DRY( 64,124)   DRY( 64,125)   DRY( 64,126)   DRY( 64,127)   DRY( 64,128)   
    DRY( 64,129)   DRY( 64,130)   DRY( 64,131)   DRY( 64,132)   DRY( 64,133)   
    DRY( 64,134)   DRY( 64,135)   DRY( 64,136)   DRY( 64,137)   DRY( 64,138)   
    DRY( 64,139)   DRY( 64,140)   DRY( 64,141)   DRY( 64,187)   DRY( 64,188)   
    DRY( 64,189)   DRY( 64,190)   DRY( 64,191)   DRY( 64,192)   DRY( 64,193)   
    DRY( 64,194)   DRY( 64,195)   DRY( 64,196)   DRY( 64,197)   DRY( 64,198)   
    DRY( 64,199)   DRY( 64,200)   DRY( 64,201)   DRY( 64,202)   

 CELL CONVERSIONS FOR ITER.=  2  LAYER= 20  STEP=  1  PERIOD=   1   (ROW,COL)
    DRY( 63,  1)   DRY( 63,  2)   DRY( 64,  1)   DRY( 64,  2)   DRY( 64,  3)   

 CELL CONVERSIONS FOR ITER.=  2  LAYER= 22  STEP=  1  PERIOD=   1   (ROW,COL)
    DRY( 74,  1)   

 CELL CONVERSIONS FOR ITER.=  2  LAYER= 39  STEP=  1  PERIOD=   1   (ROW,COL)
    DRY(131,  5)   DRY(132,  5)   DRY(132,  6)   DRY(132,  7)   DRY(133,  1)   
    DRY(133,  5)   DRY(133,  6)   DRY(133,  7)   DRY(133,  8)   DRY(133,  9)   
    DRY(133, 10)   DRY(133, 11)   DRY(133, 12)   DRY(133, 13)   DRY(133, 14)   
    DRY(133, 15)   DRY(133, 16)   DRY(133, 17)   DRY(133, 18)   DRY(133, 19)   
    DRY(133, 20)   DRY(133, 21)   DRY(133, 22)   DRY(133, 23)   DRY(133, 24)   
    DRY(133, 25)   DRY(133, 26)   DRY(133, 27)   DRY(133, 28)   DRY(133, 29)   
    DRY(133, 30)   DRY(133, 31)   DRY(133, 32)   DRY(133, 33)   DRY(133, 34)   
    DRY(133, 35)   DRY(133, 36)   DRY(133, 37)   DRY(133, 38)   DRY(133, 39)   
    DRY(133, 40)   DRY(133, 41)   DRY(133, 42)   DRY(133, 43)   DRY(133, 44)   
    DRY(133, 45)   DRY(133, 46)   DRY(133, 47)   DRY(133, 48)   DRY(133, 49)   
    DRY(133, 50)   DRY(133, 51)   DRY(133, 52)   DRY(133, 53)   DRY(133, 54)   
    DRY(133, 55)   DRY(133, 56)   DRY(133, 57)   DRY(133, 58)   DRY(133, 59)   
    DRY(133, 60)   DRY(133, 61)   DRY(133, 62)   DRY(133, 63)   DRY(133, 64)   
    DRY(133, 65)   DRY(133, 66)   DRY(133, 67)   DRY(133, 68)   DRY(133, 69)   
    DRY(133, 70)   DRY(133, 71)   DRY(133, 72)   DRY(133, 73)   DRY(133, 74)   
    DRY(133, 75)   DRY(133, 76)   DRY(133, 77)   DRY(133, 78)   DRY(133, 79)   
    DRY(133, 80)   DRY(133, 81)   DRY(133, 82)   DRY(133, 83)   DRY(133, 84)   
    DRY(133, 85)   DRY(133, 86)   DRY(133, 87)   DRY(133, 88)   DRY(133, 89)   
    DRY(133, 90)   DRY(133, 91)   DRY(133, 92)   DRY(133, 93)   DRY(133, 94)   
    DRY(133, 95)   DRY(133, 96)   DRY(133, 97)   DRY(133, 98)   DRY(133, 99)   
    DRY(133,100)   DRY(133,101)   DRY(133,102)   DRY(133,103)   DRY(133,104)   
    DRY(133,105)   DRY(133,106)   DRY(133,107)   DRY(133,108)   DRY(133,109)   
    DRY(133,110)   DRY(133,111)   DRY(133,112)   DRY(133,113)   DRY(133,114)   
    DRY(133,115)   DRY(133,116)   DRY(133,117)   DRY(133,118)   DRY(133,119)   
    DRY(133,120)   DRY(133,121)   DRY(133,122)   DRY(133,123)   DRY(133,124)   
    DRY(133,125)   DRY(133,126)   DRY(133,127)   DRY(133,128)   DRY(133,129)   
    DRY(133,130)   DRY(133,131)   DRY(133,132)   DRY(133,133)   DRY(133,134)   
    DRY(133,135)   DRY(133,136)   DRY(133,137)   DRY(133,138)   DRY(133,139)   
    DRY(133,140)   DRY(133,141)   DRY(133,142)   DRY(133,143)   DRY(133,144)   
    DRY(133,145)   DRY(133,146)   DRY(133,147)   DRY(133,148)   DRY(133,149)   
    DRY(133,150)   DRY(133,151)   DRY(133,152)   DRY(133,153)   DRY(133,154)   
    DRY(133,155)   DRY(133,156)   DRY(133,157)   DRY(133,158)   DRY(133,159)   
    DRY(133,160)   DRY(133,161)   DRY(133,162)   DRY(133,163)   DRY(133,164)   
    DRY(133,165)   DRY(133,166)   DRY(133,167)   DRY(133,168)   DRY(133,169)   
    DRY(133,170)   DRY(133,171)   DRY(133,172)   DRY(133,173)   DRY(133,174)   
    DRY(133,175)   DRY(133,176)   DRY(133,177)   DRY(133,178)   DRY(133,179)   
    DRY(133,180)   DRY(133,181)   DRY(133,182)   DRY(133,183)   DRY(133,184)   
    DRY(133,185)   DRY(133,186)   DRY(133,187)   DRY(133,188)   DRY(133,189)   
    DRY(133,190)   DRY(133,191)   DRY(133,192)   DRY(133,193)   DRY(133,194)   
    DRY(133,195)   DRY(133,196)   DRY(133,197)   DRY(133,198)   DRY(133,199)   
    DRY(133,200)   DRY(133,201)   DRY(133,202)   DRY(133,203)   DRY(133,204)   
    DRY(133,205)   DRY(133,206)   DRY(133,207)   DRY(133,208)   DRY(133,209)   
    DRY(133,210)   DRY(133,211)   DRY(133,212)   DRY(133,213)   DRY(133,214)   
    DRY(133,215)   DRY(134,  1)   DRY(134,  2)   DRY(134,  3)   DRY(134,  4)   
    DRY(134,  5)   DRY(134,  6)   DRY(134,  7)   DRY(134,  8)   DRY(134,  9)   
    DRY(134, 10)   DRY(134, 11)   DRY(134, 12)   DRY(134, 13)   DRY(134, 14)   
    DRY(134, 15)   DRY(134, 16)   DRY(134, 17)   DRY(134, 18)   DRY(134, 19)   
    DRY(134, 20)   DRY(134, 21)   DRY(134, 22)   DRY(134, 23)   DRY(134, 24)   
    DRY(134, 25)   DRY(134, 26)   DRY(134, 27)   DRY(134, 28)   DRY(134, 29)   
    DRY(134, 30)   DRY(134, 31)   DRY(134, 32)   DRY(134, 33)   DRY(134, 34)   
    DRY(134, 35)   DRY(134, 36)   DRY(134, 37)   DRY(134, 38)   DRY(134, 39)   
    DRY(134, 40)   DRY(134, 41)   DRY(134, 42)   DRY(134, 43)   DRY(134, 44)   
    DRY(134, 45)   DRY(134, 46)   DRY(134, 47)   DRY(134, 48)   DRY(134, 49)   
    DRY(134, 50)   DRY(134, 51)   DRY(134, 52)   DRY(134, 53)   DRY(134, 54)   
    DRY(134, 55)   DRY(134, 56)   DRY(134, 57)   DRY(134, 58)   DRY(134, 59)   
    DRY(134, 60)   DRY(134, 61)   DRY(134, 62)   DRY(134, 63)   DRY(134, 64)   
    DRY(134, 65)   DRY(134, 66)   DRY(134, 67)   DRY(134, 68)   DRY(134, 69)   
    DRY(134, 70)   DRY(134, 71)   DRY(134, 72)   DRY(134, 73)   DRY(134, 74)   
    DRY(134, 75)   DRY(134, 76)   DRY(134, 77)   DRY(134, 78)   DRY(134, 79)   
    DRY(134, 80)   DRY(134, 81)   DRY(134, 82)   DRY(134, 83)   DRY(134, 84)   
    DRY(134, 85)   DRY(134, 86)   DRY(134, 87)   DRY(134, 88)   DRY(134, 89)   
    DRY(134, 90)   DRY(134, 91)   DRY(134, 92)   DRY(134, 93)   DRY(134, 94)   
    DRY(134, 95)   DRY(134, 96)   DRY(134, 97)   DRY(134, 98)   DRY(134, 99)   
    DRY(134,100)   DRY(134,101)   DRY(134,102)   DRY(134,103)   DRY(134,104)   
    DRY(134,105)   DRY(134,106)   DRY(134,107)   DRY(134,108)   DRY(134,109)   
    DRY(134,110)   DRY(134,111)   DRY(134,112)   DRY(134,113)   DRY(134,114)   
    DRY(134,115)   DRY(134,116)   DRY(134,117)   DRY(134,118)   DRY(134,119)   
    DRY(134,120)   DRY(134,121)   DRY(134,122)   DRY(134,123)   DRY(134,124)   
    DRY(134,125)   DRY(134,126)   DRY(134,127)   DRY(134,128)   DRY(134,129)   
    DRY(134,130)   DRY(134,131)   DRY(134,132)   DRY(134,133)   DRY(134,134)   
    DRY(134,135)   DRY(134,136)   DRY(134,137)   DRY(134,138)   DRY(134,139)   
    DRY(134,140)   DRY(134,141)   DRY(134,142)   DRY(134,143)   DRY(134,144)   
    DRY(134,145)   DRY(134,146)   DRY(134,147)   DRY(134,148)   DRY(134,149)   
    DRY(134,150)   DRY(134,151)   DRY(134,152)   DRY(134,153)   DRY(134,154)   
    DRY(134,155)   DRY(134,156)   DRY(134,157)   DRY(134,158)   DRY(134,159)   
    DRY(134,160)   DRY(134,161)   DRY(134,162)   DRY(134,163)   DRY(134,164)   
    DRY(134,165)   DRY(134,166)   DRY(134,167)   DRY(134,168)   DRY(134,169)   
    DRY(134,170)   DRY(134,171)   DRY(134,172)   DRY(134,173)   DRY(134,174)   
    DRY(134,175)   DRY(134,176)   DRY(134,177)   DRY(134,178)   DRY(134,179)   
    DRY(134,180)   DRY(134,181)   DRY(134,182)   DRY(134,183)   DRY(134,184)   
    DRY(134,185)   DRY(134,186)   DRY(134,187)   DRY(134,188)   DRY(134,189)   
    DRY(134,190)   DRY(134,191)   DRY(134,192)   DRY(134,193)   DRY(134,194)   
    DRY(134,195)   DRY(134,196)   DRY(134,197)   DRY(134,198)   DRY(134,199)   
    DRY(134,200)   DRY(134,201)   DRY(134,202)   DRY(134,203)   DRY(134,204)   
    DRY(134,205)   DRY(134,206)   DRY(134,207)   DRY(134,208)   DRY(134,209)   
    DRY(134,210)   DRY(134,211)   DRY(134,212)   DRY(134,213)   DRY(134,214)   
    DRY(134,215)   DRY(134,216)   DRY(134,217)   DRY(134,218)   DRY(134,219)   
    DRY(134,220)   DRY(135,  1)   DRY(135,  2)   DRY(135,  3)   DRY(135,  4)   
    DRY(135,  5)   DRY(135,  6)   DRY(135,  7)   DRY(135,  8)   DRY(135,  9)   
    DRY(135, 10)   DRY(135, 11)   DRY(135, 12)   DRY(135, 13)   DRY(135, 14)   
    DRY(135, 15)   DRY(135, 16)   DRY(135, 17)   DRY(135, 18)   DRY(135, 19)   
    DRY(135, 20)   DRY(135, 21)   DRY(135, 22)   DRY(135, 23)   DRY(135, 24)   
    DRY(135, 25)   DRY(135, 26)   DRY(135, 27)   DRY(135, 28)   DRY(135, 29)   
    DRY(135, 30)   DRY(135, 31)   DRY(135, 32)   DRY(135, 33)   DRY(135, 34)   
    DRY(135, 35)   DRY(135, 36)   DRY(135, 37)   DRY(135, 38)   DRY(135, 39)   
    DRY(135, 40)   DRY(135, 41)   DRY(135, 42)   DRY(135, 43)   DRY(135, 44)   
    DRY(135, 45)   DRY(135, 46)   DRY(135, 47)   DRY(135, 48)   DRY(135, 49)   
    DRY(135, 50)   DRY(135, 51)   DRY(135, 52)   DRY(135, 53)   DRY(135, 54)   
    DRY(135, 55)   DRY(135, 56)   DRY(135, 57)   DRY(135, 58)   DRY(135, 59)   
    DRY(135, 60)   DRY(135, 61)   DRY(135, 62)   DRY(135, 63)   DRY(135, 64)   
    DRY(135, 65)   DRY(135, 66)   DRY(135, 67)   DRY(135, 68)   DRY(135, 69)   
    DRY(135, 70)   DRY(135, 71)   DRY(135, 72)   DRY(135, 73)   DRY(135, 74)   
    DRY(135, 75)   DRY(135, 76)   DRY(135, 77)   DRY(135, 78)   DRY(135, 79)   
    DRY(135, 80)   DRY(135, 81)   DRY(135, 82)   DRY(135, 83)   DRY(135, 84)   
    DRY(135, 85)   DRY(135, 86)   DRY(135, 87)   DRY(135, 88)   DRY(135, 89)   
    DRY(135, 90)   DRY(135, 91)   DRY(135, 92)   DRY(135, 93)   DRY(135, 94)   
    DRY(135, 95)   DRY(135, 96)   DRY(135, 97)   DRY(135, 98)   DRY(135, 99)   
    DRY(135,100)   DRY(135,101)   DRY(135,102)   DRY(135,103)   DRY(135,104)   
    DRY(135,105)   DRY(135,106)   DRY(135,107)   DRY(135,108)   DRY(135,109)   
    DRY(135,110)   DRY(135,111)   DRY(135,112)   DRY(135,113)   DRY(135,114)   
    DRY(135,115)   DRY(135,116)   DRY(135,117)   DRY(135,118)   DRY(135,119)   
    DRY(135,120)   DRY(135,121)   DRY(135,122)   DRY(135,123)   DRY(135,124)   
    DRY(135,125)   DRY(135,126)   DRY(135,127)   DRY(135,128)   DRY(135,129)   
    DRY(135,130)   DRY(135,131)   DRY(135,132)   DRY(135,133)   DRY(135,134)   
    DRY(135,135)   DRY(135,136)   DRY(135,137)   DRY(135,138)   DRY(135,139)   
    DRY(135,140)   DRY(135,141)   DRY(135,142)   DRY(135,143)   DRY(135,144)   
    DRY(135,145)   DRY(135,146)   DRY(135,147)   DRY(135,148)   DRY(135,149)   
    DRY(135,150)   DRY(135,151)   DRY(135,152)   DRY(135,153)   DRY(135,154)   
    DRY(135,155)   DRY(135,156)   DRY(135,157)   DRY(135,158)   DRY(135,159)   
    DRY(135,160)   DRY(135,161)   DRY(135,162)   DRY(135,163)   DRY(135,164)   
    DRY(135,165)   DRY(135,166)   DRY(135,167)   DRY(135,168)   DRY(135,169)   
    DRY(135,170)   DRY(135,171)   DRY(135,172)   DRY(135,173)   DRY(135,174)   
    DRY(135,175)   DRY(135,176)   DRY(135,177)   DRY(135,178)   DRY(135,179)   
    DRY(135,180)   DRY(135,181)   DRY(135,182)   DRY(135,183)   DRY(135,184)   
    DRY(135,185)   DRY(135,186)   DRY(135,187)   DRY(135,188)   DRY(135,189)   
    DRY(135,190)   DRY(135,191)   DRY(135,192)   DRY(135,193)   DRY(135,194)   
    DRY(135,195)   DRY(135,196)   DRY(135,197)   DRY(135,198)   DRY(135,199)   
    DRY(135,200)   DRY(135,201)   DRY(135,202)   DRY(135,203)   DRY(135,204)   
    DRY(135,205)   DRY(135,206)   DRY(135,207)   DRY(135,208)   DRY(135,209)   
    DRY(135,210)   DRY(135,211)   DRY(135,212)   DRY(135,213)   DRY(135,214)   
    DRY(135,215)   DRY(135,216)   DRY(135,217)   DRY(135,218)   DRY(135,219)   
    DRY(135,220)   

 CELL CONVERSIONS FOR ITER.=  2  LAYER= 40  STEP=  1  PERIOD=   1   (ROW,COL)
    DRY(134,  5)   DRY(134,  6)   DRY(134,  7)   DRY(134,  8)   DRY(134,  9)   
    DRY(134, 10)   DRY(134, 11)   DRY(134, 12)   DRY(134, 13)   DRY(134, 14)   
    DRY(134, 15)   DRY(134, 16)   DRY(134, 17)   DRY(134, 18)   DRY(134, 19)   
    DRY(134, 20)   DRY(134, 21)   DRY(134, 22)   DRY(134, 23)   DRY(134, 24)   
    DRY(134, 25)   DRY(134, 26)   DRY(134, 27)   DRY(134, 28)   DRY(134, 29)   
    DRY(134, 30)   DRY(134, 31)   DRY(134, 32)   DRY(134, 33)   DRY(134, 34)   
    DRY(134, 35)   DRY(134, 36)   DRY(134, 37)   DRY(134, 38)   DRY(134, 39)   
    DRY(134, 40)   DRY(134, 41)   DRY(134, 42)   DRY(134, 43)   DRY(134, 44)   
    DRY(134, 45)   DRY(134, 46)   DRY(134, 47)   DRY(134, 48)   DRY(134, 49)   
    DRY(134, 50)   DRY(134, 51)   DRY(134, 52)   DRY(134, 53)   DRY(134, 54)   
    DRY(134, 55)   DRY(134, 56)   DRY(134, 57)   DRY(134, 58)   DRY(134, 59)   
    DRY(134, 60)   DRY(134, 61)   DRY(134, 62)   DRY(134, 63)   DRY(134, 64)   
    DRY(134, 65)   DRY(134, 66)   DRY(134, 67)   DRY(134, 68)   DRY(134, 69)   
    DRY(134, 70)   DRY(134, 71)   DRY(134, 72)   DRY(134, 73)   DRY(134, 74)   
    DRY(134, 75)   DRY(134, 76)   DRY(134, 77)   DRY(134, 78)   DRY(134, 79)   
    DRY(134, 80)   DRY(134, 81)   DRY(134, 82)   DRY(134, 83)   DRY(134, 84)   
    DRY(134, 85)   DRY(134, 86)   DRY(134, 87)   DRY(134, 88)   DRY(134, 89)   
    DRY(134, 90)   DRY(134, 91)   DRY(134, 92)   DRY(134, 93)   DRY(134, 94)   
    DRY(134, 95)   DRY(134, 96)   DRY(134, 97)   DRY(134, 98)   DRY(134, 99)   
    DRY(134,100)   DRY(134,101)   DRY(134,102)   DRY(134,103)   DRY(134,104)   
    DRY(134,105)   DRY(134,106)   DRY(134,107)   DRY(134,108)   DRY(134,109)   
    DRY(134,110)   DRY(134,111)   DRY(134,112)   DRY(134,113)   DRY(134,114)   
    DRY(134,115)   DRY(134,116)   DRY(134,117)   DRY(134,118)   DRY(134,119)   
    DRY(134,120)   DRY(134,121)   DRY(134,122)   DRY(134,123)   DRY(134,124)   
    DRY(134,125)   DRY(134,126)   DRY(134,127)   DRY(134,128)   DRY(134,129)   
    DRY(134,130)   DRY(134,131)   DRY(134,132)   DRY(134,133)   DRY(134,134)   
    DRY(134,135)   DRY(134,136)   DRY(134,137)   DRY(134,138)   DRY(134,139)   
    DRY(134,140)   DRY(134,141)   DRY(134,142)   DRY(134,143)   DRY(134,144)   
    DRY(134,145)   DRY(134,146)   DRY(134,147)   DRY(134,148)   DRY(134,149)   
    DRY(134,150)   DRY(134,151)   DRY(134,152)   DRY(134,153)   DRY(134,154)   
    DRY(134,155)   DRY(134,156)   DRY(134,157)   DRY(134,158)   DRY(134,159)   
    DRY(134,160)   DRY(134,161)   DRY(134,162)   DRY(134,163)   DRY(134,164)   
    DRY(134,165)   DRY(134,166)   DRY(134,167)   DRY(134,168)   DRY(134,169)   
    DRY(134,170)   DRY(134,171)   DRY(134,172)   DRY(134,173)   DRY(134,174)   
    DRY(134,175)   DRY(134,176)   DRY(134,177)   DRY(134,178)   DRY(134,179)   
    DRY(134,180)   DRY(134,181)   DRY(134,182)   DRY(134,183)   DRY(134,184)   
    DRY(134,185)   DRY(134,186)   DRY(134,187)   DRY(134,188)   DRY(134,189)   
    DRY(134,190)   DRY(134,191)   DRY(134,192)   DRY(134,193)   DRY(134,194)   
    DRY(134,195)   DRY(134,196)   DRY(134,197)   DRY(134,198)   DRY(134,199)   
    DRY(134,200)   DRY(134,201)   DRY(134,202)   DRY(134,203)   DRY(134,204)   
    DRY(134,205)   DRY(134,206)   DRY(134,207)   DRY(134,208)   DRY(134,209)   
    DRY(134,210)   DRY(134,211)   DRY(134,212)   DRY(135,  7)   DRY(135,  8)   
    DRY(135,  9)   DRY(135, 10)   DRY(135, 16)   DRY(135, 17)   DRY(135, 18)   

 CELL CONVERSIONS FOR ITER.=  3  LAYER=  6  STEP=  1  PERIOD=   1   (ROW,COL)
    DRY(  6, 33)   DRY(  6, 34)   DRY(  6, 35)   DRY(  6, 36)   DRY(  6, 37)   
    DRY(  6, 38)   DRY(  6, 39)   DRY(  6, 40)   DRY(  6, 41)   DRY(  6, 42)   
    DRY(  6, 43)   DRY(  6, 44)   DRY(  6, 45)   DRY(  6, 46)   DRY(  6, 47)   
    DRY(  6, 48)   DRY(  6, 49)   DRY(  6, 50)   DRY(  6, 51)   DRY(  6, 52)   
    DRY(  6, 53)   DRY(  6, 54)   DRY(  6, 55)   DRY(  6, 56)   DRY(  6, 57)   
    DRY(  6, 58)   DRY(  6, 59)   DRY(  6, 60)   DRY(  6, 61)   DRY(  6, 62)   
    DRY(  6, 63)   DRY(  6, 64)   DRY(  6, 65)   DRY(  6, 66)   DRY(  6, 67)   
    DRY(  6, 68)   DRY(  6, 69)   DRY(  6, 70)   DRY(  6, 71)   DRY(  6, 72)   
    DRY(  6, 73)   DRY(  6, 74)   DRY(  6, 75)   DRY(  6, 76)   DRY(  6, 77)   
    DRY(  6, 78)   DRY(  6, 79)   DRY(  6, 80)   DRY(  6, 81)   DRY(  6, 82)   
    DRY(  6, 83)   DRY(  6, 84)   DRY(  6, 85)   DRY(  6, 86)   DRY(  6, 87)   
    DRY(  6, 88)   DRY(  6, 89)   DRY(  6, 90)   DRY(  6, 91)   DRY(  6, 92)   
    DRY(  6, 93)   DRY(  6, 94)   DRY(  6, 95)   DRY(  6, 96)   DRY(  6, 97)   
    DRY(  6, 98)   DRY(  6, 99)   DRY(  6,100)   DRY(  6,101)   DRY(  6,102)   
    DRY(  6,103)   DRY(  6,104)   DRY(  6,105)   DRY(  6,106)   DRY(  6,107)   
    DRY(  6,108)   DRY(  6,109)   DRY(  6,110)   DRY(  6,111)   DRY(  6,112)   
    DRY(  6,113)   DRY(  6,114)   DRY(  6,115)   DRY(  6,116)   DRY(  6,117)   
    DRY(  6,118)   DRY(  6,119)   DRY(  6,120)   DRY(  6,121)   DRY(  6,122)   
    DRY(  6,123)   DRY(  6,124)   DRY(  6,125)   DRY(  6,126)   DRY(  6,127)   
    DRY(  6,128)   DRY(  6,129)   DRY(  6,130)   DRY(  6,131)   DRY(  6,132)   
    DRY(  6,133)   DRY(  6,134)   DRY(  6,135)   DRY(  6,136)   DRY(  6,137)   
    DRY(  6,138)   DRY(  6,139)   DRY(  6,140)   DRY(  6,141)   DRY(  6,142)   
    DRY(  6,143)   DRY(  6,144)   DRY(  6,145)   DRY(  6,146)   DRY(  6,147)   
    DRY(  6,148)   DRY(  6,149)   DRY(  6,150)   DRY(  6,151)   DRY(  6,152)   
    DRY(  6,153)   DRY(  6,154)   DRY(  6,155)   DRY(  6,156)   DRY(  6,157)   
    DRY(  6,158)   DRY(  6,159)   DRY(  6,160)   DRY(  6,166)   DRY(  6,167)   
    DRY(  6,168)   DRY(  6,169)   DRY(  6,170)   DRY(  6,171)   DRY(  6,172)   
    DRY(  6,173)   DRY(  6,174)   DRY(  6,175)   DRY(  6,176)   DRY(  6,177)   
    DRY(  6,178)   DRY(  6,179)   DRY(  6,180)   DRY(  6,181)   DRY(  6,182)   
    DRY(  6,183)   DRY(  6,184)   DRY(  6,185)   DRY(  6,186)   DRY(  6,187)   
    DRY(  6,188)   DRY(  6,189)   DRY(  6,211)   DRY(  6,212)   DRY(  6,213)   
    DRY(  6,214)   DRY(  6,215)   DRY(  6,216)   DRY(  7, 15)   DRY(  7, 16)   
    DRY(  7, 17)   DRY(  7, 18)   DRY(  7, 19)   DRY(  7, 20)   DRY(  7, 21)   
    DRY(  7, 22)   DRY(  7, 23)   DRY(  7, 24)   DRY(  7, 25)   DRY(  7, 26)   
    DRY(  7, 27)   DRY(  7, 28)   DRY(  7, 29)   DRY(  7, 30)   DRY(  7, 31)   
    DRY(  7, 32)   DRY(  7, 33)   DRY(  7, 34)   DRY(  7, 35)   DRY(  7, 36)   
    DRY(  7, 37)   DRY(  7, 38)   DRY(  7, 39)   DRY(  7, 40)   DRY(  7, 41)   
    DRY(  7, 42)   DRY(  7,123)   DRY(  7,124)   DRY(  7,125)   DRY(  7,144)   
    DRY(  7,145)   DRY(  7,146)   DRY(  7,147)   DRY(  7,148)   DRY(  7,149)   
    DRY(  7,165)   DRY(  7,166)   DRY(  7,167)   DRY(  7,168)   DRY(  7,169)   
    DRY(  7,170)   DRY(  7,171)   DRY(  7,172)   DRY(  7,173)   DRY(  7,174)   
    DRY(  7,175)   DRY(  7,176)   DRY(  7,177)   DRY(  7,178)   DRY(  7,179)   
    DRY(  7,180)   DRY(  7,181)   DRY(  7,182)   DRY(  7,183)   DRY(  7,184)   
    DRY(  7,185)   DRY(  7,199)   DRY(  7,200)   DRY(  7,201)   DRY(  7,202)   
    DRY(  7,203)   DRY(  7,204)   DRY(  7,205)   DRY(  7,206)   DRY(  7,207)   
    DRY(  7,208)   DRY(  7,209)   DRY(  7,210)   DRY(  7,211)   DRY(  7,212)   
    DRY(  7,213)   DRY(  7,214)   DRY(  7,215)   DRY(  7,216)   DRY(  8,210)   
    DRY(  8,211)   DRY(  8,212)   DRY(  8,213)   DRY(  8,214)   DRY(  8,215)   
    DRY(  8,216)   DRY(  9,212)   DRY(  9,213)   DRY(  9,214)   DRY(  9,215)   
    DRY(  9,216)   DRY(  9,217)   DRY( 10,213)   DRY( 10,214)   DRY( 10,215)   
    DRY( 10,216)   DRY( 10,217)   DRY( 11,214)   DRY( 11,215)   DRY( 11,216)   
    DRY( 11,217)   DRY( 11,218)   DRY( 12,216)   DRY( 12,217)   DRY( 12,218)   
    DRY( 12,219)   DRY( 13,217)   DRY( 13,218)   DRY( 13,219)   DRY( 13,220)   

 CELL CONVERSIONS FOR ITER.=  3  LAYER=  7  STEP=  1  PERIOD=   1   (ROW,COL)
    DRY(  9,  5)   DRY(  9,  6)   DRY(  9,  7)   DRY(  9,  8)   DRY(  9,  9)   
    DRY(  9, 10)   DRY(  9, 11)   DRY(  9, 12)   DRY(  9, 13)   DRY(  9, 14)   
    DRY(  9, 15)   DRY(  9, 16)   DRY(  9, 17)   DRY(  9, 18)   DRY(  9, 19)   
    DRY(  9, 20)   DRY(  9, 21)   DRY(  9, 22)   DRY(  9, 23)   DRY(  9, 24)   
    DRY(  9, 25)   DRY(  9, 26)   DRY(  9, 27)   DRY(  9, 28)   DRY(  9, 29)   
    DRY(  9, 30)   DRY(  9, 31)   DRY(  9, 32)   DRY(  9, 33)   DRY(  9, 34)   
    DRY(  9, 35)   DRY(  9, 36)   DRY(  9, 37)   DRY(  9, 38)   DRY(  9, 39)   
    DRY(  9, 40)   DRY(  9, 41)   DRY(  9, 42)   DRY(  9, 43)   DRY(  9, 44)   
    DRY(  9, 45)   DRY(  9, 46)   DRY(  9, 47)   DRY(  9, 48)   DRY(  9, 49)   
    DRY(  9, 50)   DRY(  9, 51)   DRY(  9, 52)   DRY(  9, 53)   DRY(  9, 54)   
    DRY(  9, 55)   DRY(  9, 56)   DRY(  9, 57)   DRY(  9, 58)   DRY(  9, 59)   
    DRY(  9, 60)   DRY(  9, 61)   DRY(  9, 62)   DRY(  9, 63)   DRY(  9, 64)   
    DRY(  9, 65)   DRY(  9, 66)   DRY(  9, 67)   DRY(  9, 68)   DRY(  9, 69)   
    DRY(  9, 70)   DRY(  9, 71)   DRY(  9, 72)   DRY(  9, 73)   DRY(  9, 74)   
    DRY(  9, 75)   DRY(  9, 76)   DRY(  9, 77)   DRY(  9, 78)   DRY(  9, 79)   
    DRY(  9, 80)   DRY(  9, 81)   DRY(  9, 82)   DRY(  9, 83)   DRY(  9, 84)   
    DRY(  9, 85)   DRY(  9, 86)   DRY(  9, 87)   DRY(  9, 88)   DRY(  9, 89)   
    DRY(  9, 90)   DRY(  9, 91)   DRY(  9, 92)   DRY(  9, 93)   DRY(  9, 94)   
    DRY(  9, 95)   DRY(  9, 96)   DRY(  9, 97)   DRY(  9, 98)   DRY(  9, 99)   
    DRY(  9,100)   DRY(  9,101)   DRY(  9,102)   DRY(  9,103)   DRY(  9,104)   
    DRY(  9,105)   DRY(  9,106)   DRY(  9,107)   DRY(  9,108)   DRY(  9,109)   
    DRY(  9,110)   DRY(  9,111)   DRY(  9,112)   DRY(  9,113)   DRY(  9,114)   
    DRY(  9,115)   DRY(  9,116)   DRY(  9,117)   DRY(  9,118)   DRY(  9,119)   
    DRY(  9,120)   DRY(  9,121)   DRY(  9,122)   DRY(  9,123)   DRY(  9,124)   
    DRY(  9,125)   DRY(  9,126)   DRY(  9,127)   DRY(  9,128)   DRY(  9,129)   
    DRY(  9,130)   DRY(  9,131)   DRY(  9,132)   DRY(  9,133)   DRY(  9,134)   
    DRY(  9,135)   DRY(  9,136)   DRY(  9,137)   DRY(  9,138)   DRY(  9,139)   
    DRY(  9,140)   DRY(  9,141)   DRY(  9,142)   DRY(  9,143)   DRY(  9,144)   
    DRY(  9,145)   DRY(  9,146)   DRY(  9,147)   DRY(  9,148)   DRY(  9,149)   
    DRY(  9,150)   DRY(  9,151)   DRY(  9,152)   DRY(  9,153)   DRY(  9,154)   
    DRY(  9,155)   DRY(  9,156)   DRY(  9,157)   DRY(  9,158)   DRY(  9,159)   
    DRY(  9,160)   DRY(  9,161)   DRY(  9,162)   DRY(  9,163)   DRY(  9,164)   
    DRY(  9,165)   DRY(  9,166)   DRY(  9,167)   DRY(  9,168)   DRY(  9,169)   
    DRY(  9,170)   DRY(  9,171)   DRY(  9,172)   DRY(  9,173)   DRY(  9,174)   
    DRY(  9,175)   DRY(  9,176)   DRY(  9,177)   DRY(  9,178)   DRY(  9,179)   
    DRY(  9,180)   DRY(  9,181)   DRY(  9,182)   DRY(  9,183)   DRY(  9,184)   
    DRY(  9,185)   DRY(  9,186)   DRY(  9,187)   DRY(  9,188)   DRY(  9,189)   
    DRY(  9,190)   DRY(  9,191)   DRY(  9,192)   DRY(  9,193)   DRY(  9,194)   
    DRY(  9,195)   DRY(  9,196)   DRY(  9,197)   DRY(  9,198)   DRY(  9,199)   
    DRY(  9,200)   DRY(  9,201)   DRY(  9,202)   DRY(  9,203)   DRY(  9,204)   
    DRY(  9,205)   DRY(  9,206)   DRY(  9,207)   DRY(  9,208)   DRY(  9,209)   
    DRY(  9,210)   DRY(  9,211)   DRY(  9,212)   DRY(  9,213)   DRY(  9,214)   
    DRY(  9,215)   DRY(  9,216)   DRY(  9,217)   DRY(  9,218)   DRY(  9,219)   
    DRY( 10, 12)   DRY( 10, 13)   DRY( 10, 14)   DRY( 10, 15)   DRY( 10, 16)   
    DRY( 10, 17)   DRY( 10, 18)   DRY( 10, 19)   DRY( 10, 20)   DRY( 10, 21)   
    DRY( 10, 22)   DRY( 10, 23)   DRY( 10, 24)   DRY( 10, 25)   DRY( 10, 26)   
    DRY( 10, 27)   DRY( 10, 28)   DRY( 10, 29)   DRY( 10, 30)   DRY( 10, 31)   
    DRY( 10, 32)   DRY( 10, 33)   DRY( 10, 34)   DRY( 10, 35)   DRY( 10, 36)   
    DRY( 10, 37)   DRY( 10, 38)   DRY( 10, 39)   DRY( 10, 40)   DRY( 10, 41)   
    DRY( 10, 42)   DRY( 10, 43)   DRY( 10, 44)   DRY( 10, 45)   DRY( 10, 46)   
    DRY( 10, 47)   DRY( 10, 48)   DRY( 10, 49)   DRY( 10, 50)   DRY( 10, 51)   
    DRY( 10, 52)   DRY( 10, 53)   DRY( 10, 54)   DRY( 10, 55)   DRY( 10, 56)   
    DRY( 10, 57)   DRY( 10, 58)   DRY( 10, 59)   DRY( 10, 60)   DRY( 10, 61)   
    DRY( 10, 62)   DRY( 10, 63)   DRY( 10, 64)   DRY( 10, 65)   DRY( 10, 66)   
    DRY( 10, 67)   DRY( 10, 68)   DRY( 10, 69)   DRY( 10, 70)   DRY( 10, 71)   
    DRY( 10, 72)   DRY( 10, 73)   DRY( 10, 74)   DRY( 10, 75)   DRY( 10, 76)   
    DRY( 10, 77)   DRY( 10, 78)   DRY( 10, 79)   DRY( 10, 80)   DRY( 10, 81)   
    DRY( 10, 82)   DRY( 10, 83)   DRY( 10, 84)   DRY( 10, 85)   DRY( 10, 86)   
    DRY( 10, 87)   DRY( 10, 88)   DRY( 10, 89)   DRY( 10, 90)   DRY( 10, 91)   
    DRY( 10, 92)   DRY( 10, 93)   DRY( 10, 94)   DRY( 10, 95)   DRY( 10, 96)   
    DRY( 10, 97)   DRY( 10, 98)   DRY( 10, 99)   DRY( 10,100)   DRY( 10,101)   
    DRY( 10,102)   DRY( 10,103)   DRY( 10,104)   DRY( 10,105)   DRY( 10,106)   
    DRY( 10,107)   DRY( 10,108)   DRY( 10,109)   DRY( 10,110)   DRY( 10,111)   
    DRY( 10,112)   DRY( 10,113)   DRY( 10,114)   DRY( 10,115)   DRY( 10,116)   
    DRY( 10,117)   DRY( 10,118)   DRY( 10,119)   DRY( 10,120)   DRY( 10,121)   
    DRY( 10,122)   DRY( 10,123)   DRY( 10,124)   DRY( 10,125)   DRY( 10,126)   
    DRY( 10,127)   DRY( 10,128)   DRY( 10,129)   DRY( 10,130)   DRY( 10,131)   
    DRY( 10,132)   DRY( 10,133)   DRY( 10,134)   DRY( 10,135)   DRY( 10,136)   
    DRY( 10,137)   DRY( 10,138)   DRY( 10,139)   DRY( 10,140)   DRY( 10,141)   
    DRY( 10,142)   DRY( 10,143)   DRY( 10,144)   DRY( 10,145)   DRY( 10,146)   
    DRY( 10,147)   DRY( 10,148)   DRY( 10,149)   DRY( 10,150)   DRY( 10,151)   
    DRY( 10,152)   DRY( 10,153)   DRY( 10,154)   DRY( 10,155)   DRY( 10,156)   
    DRY( 10,157)   DRY( 10,158)   DRY( 10,159)   DRY( 10,160)   DRY( 10,161)   
    DRY( 10,162)   DRY( 10,163)   DRY( 10,164)   DRY( 10,165)   DRY( 10,166)   
    DRY( 10,167)   DRY( 10,168)   DRY( 10,169)   DRY( 10,170)   DRY( 10,171)   
    DRY( 10,172)   DRY( 10,173)   DRY( 10,174)   DRY( 10,175)   DRY( 10,176)   
    DRY( 10,177)   DRY( 10,178)   DRY( 10,179)   DRY( 10,180)   DRY( 10,181)   
    DRY( 10,182)   DRY( 10,183)   DRY( 10,184)   DRY( 10,185)   DRY( 10,186)   
    DRY( 10,187)   DRY( 10,188)   DRY( 10,189)   DRY( 10,190)   DRY( 10,191)   
    DRY( 10,192)   DRY( 10,193)   DRY( 10,194)   DRY( 10,195)   DRY( 10,196)   
    DRY( 10,197)   DRY( 10,198)   DRY( 10,199)   DRY( 10,200)   DRY( 10,201)   
    DRY( 10,202)   DRY( 10,203)   DRY( 10,204)   DRY( 10,205)   DRY( 10,206)   
    DRY( 10,207)   DRY( 10,208)   DRY( 10,209)   DRY( 10,210)   DRY( 10,211)   
    DRY( 10,212)   DRY( 10,213)   DRY( 10,214)   DRY( 10,215)   DRY( 10,216)   
    DRY( 10,217)   DRY( 10,218)   DRY( 10,219)   DRY( 10,220)   DRY( 11, 24)   
    DRY( 11, 25)   DRY( 11, 26)   DRY( 11, 27)   DRY( 11, 28)   DRY( 11, 29)   
    DRY( 11, 30)   DRY( 11, 31)   DRY( 11, 32)   DRY( 11, 33)   DRY( 11, 34)   
    DRY( 11, 35)   DRY( 11, 36)   DRY( 11, 37)   DRY( 11, 38)   DRY( 11, 39)   
    DRY( 11, 40)   DRY( 11, 41)   DRY( 11, 42)   DRY( 11, 43)   DRY( 11, 44)   
    DRY( 11, 45)   DRY( 11, 46)   DRY( 11, 47)   DRY( 11, 48)   DRY( 11, 49)   
    DRY( 11, 50)   DRY( 11, 51)   DRY( 11, 52)   DRY( 11, 53)   DRY( 11, 54)   
    DRY( 11, 55)   DRY( 11, 56)   DRY( 11, 57)   DRY( 11, 58)   DRY( 11, 59)   
    DRY( 11, 60)   DRY( 11, 61)   DRY( 11, 62)   DRY( 11, 63)   DRY( 11, 64)   
    DRY( 11, 65)   DRY( 11, 66)   DRY( 11, 67)   DRY( 11, 68)   DRY( 11, 69)   
    DRY( 11, 70)   DRY( 11, 71)   DRY( 11, 72)   DRY( 11, 73)   DRY( 11, 74)   
    DRY( 11, 75)   DRY( 11, 76)   DRY( 11, 77)   DRY( 11, 78)   DRY( 11, 79)   
    DRY( 11, 80)   DRY( 11, 81)   DRY( 11, 82)   DRY( 11, 83)   DRY( 11, 84)   
    DRY( 11, 85)   DRY( 11, 86)   DRY( 11, 87)   DRY( 11, 88)   DRY( 11, 89)   
    DRY( 11, 90)   DRY( 11, 91)   DRY( 11, 92)   DRY( 11, 93)   DRY( 11, 94)   
    DRY( 11, 95)   DRY( 11, 96)   DRY( 11, 97)   DRY( 11, 98)   DRY( 11, 99)   
    DRY( 11,100)   DRY( 11,101)   DRY( 11,102)   DRY( 11,103)   DRY( 11,104)   
    DRY( 11,105)   DRY( 11,106)   DRY( 11,107)   DRY( 11,108)   DRY( 11,109)   
    DRY( 11,110)   DRY( 11,111)   DRY( 11,112)   DRY( 11,113)   DRY( 11,114)   
    DRY( 11,115)   DRY( 11,116)   DRY( 11,117)   DRY( 11,118)   DRY( 11,119)   
    DRY( 11,120)   DRY( 11,121)   DRY( 11,122)   DRY( 11,123)   DRY( 11,124)   
    DRY( 11,125)   DRY( 11,126)   DRY( 11,127)   DRY( 11,128)   DRY( 11,129)   
    DRY( 11,130)   DRY( 11,131)   DRY( 11,132)   DRY( 11,133)   DRY( 11,134)   
    DRY( 11,135)   DRY( 11,136)   DRY( 11,137)   DRY( 11,138)   DRY( 11,139)   
    DRY( 11,140)   DRY( 11,141)   DRY( 11,142)   DRY( 11,143)   DRY( 11,144)   
    DRY( 11,145)   DRY( 11,146)   DRY( 11,147)   DRY( 11,148)   DRY( 11,149)   
    DRY( 11,150)   DRY( 11,151)   DRY( 11,152)   DRY( 11,153)   DRY( 11,154)   
    DRY( 11,155)   DRY( 11,156)   DRY( 11,157)   DRY( 11,158)   DRY( 11,164)   
    DRY( 11,165)   DRY( 11,166)   DRY( 11,167)   DRY( 11,168)   DRY( 11,169)   
    DRY( 11,170)   DRY( 11,171)   DRY( 11,172)   DRY( 11,173)   DRY( 11,174)   
    DRY( 11,175)   DRY( 11,176)   DRY( 11,177)   DRY( 11,178)   DRY( 11,179)   
    DRY( 11,180)   DRY( 11,181)   DRY( 11,182)   DRY( 11,183)   DRY( 11,184)   
    DRY( 11,185)   DRY( 11,186)   DRY( 11,187)   DRY( 11,188)   DRY( 11,189)   
    DRY( 11,190)   DRY( 11,191)   DRY( 11,202)   DRY( 11,203)   DRY( 11,204)   
    DRY( 11,205)   DRY( 11,206)   DRY( 11,207)   DRY( 11,208)   DRY( 11,209)   
    DRY( 11,210)   DRY( 11,211)   DRY( 11,212)   DRY( 11,213)   DRY( 11,214)   
    DRY( 11,215)   DRY( 11,216)   DRY( 11,217)   DRY( 11,218)   DRY( 11,219)   
    DRY( 11,220)   DRY( 12,204)   DRY( 12,205)   DRY( 12,206)   DRY( 12,207)   
    DRY( 12,208)   DRY( 12,209)   DRY( 12,212)   DRY( 12,213)   DRY( 12,214)   
    DRY( 12,215)   DRY( 12,216)   DRY( 12,217)   DRY( 12,218)   DRY( 12,219)   
    DRY( 12,220)   DRY( 13,207)   DRY( 13,208)   DRY( 13,214)   DRY( 13,215)   
    DRY( 13,216)   DRY( 13,217)   DRY( 13,218)   DRY( 13,219)   DRY( 13,220)   
    DRY( 14,216)   DRY( 14,217)   DRY( 14,218)   DRY( 14,219)   DRY( 14,220)   
    DRY( 15,218)   DRY( 15,219)   DRY( 15,220)   

 CELL CONVERSIONS FOR ITER.=  3  LAYER=  8  STEP=  1  PERIOD=   1   (ROW,COL)
    DRY( 11,  1)   DRY( 11,  2)   DRY( 11,  3)   DRY( 11,  4)   DRY( 11,  5)   
    DRY( 11,  6)   DRY( 11,  7)   DRY( 11,  8)   DRY( 11,  9)   DRY( 11, 10)   
    DRY( 11, 11)   DRY( 11, 12)   DRY( 11, 13)   DRY( 11, 14)   DRY( 11, 15)   
    DRY( 11, 16)   DRY( 11, 17)   DRY( 11, 18)   DRY( 11, 19)   DRY( 11, 20)   
    DRY( 11, 21)   DRY( 11, 22)   DRY( 11, 23)   DRY( 11, 24)   DRY( 11, 25)   
    DRY( 11, 26)   DRY( 11, 27)   DRY( 11, 28)   DRY( 11, 29)   DRY( 11, 30)   
    DRY( 11, 31)   DRY( 11, 32)   DRY( 11, 33)   DRY( 11, 34)   DRY( 11, 35)   
    DRY( 11, 36)   DRY( 11, 37)   DRY( 11, 38)   DRY( 11, 39)   DRY( 11, 40)   
    DRY( 11, 41)   DRY( 11, 42)   DRY( 11, 43)   DRY( 11, 44)   DRY( 11, 45)   
    DRY( 11, 46)   DRY( 11, 47)   DRY( 11, 48)   DRY( 11, 49)   DRY( 11, 50)   
    DRY( 11, 51)   DRY( 11, 52)   DRY( 11, 53)   DRY( 11, 54)   DRY( 11, 55)   
    DRY( 11, 56)   DRY( 11, 57)   DRY( 11, 58)   DRY( 11, 59)   DRY( 11, 60)   
    DRY( 11, 61)   DRY( 11, 62)   DRY( 11, 63)   DRY( 11, 64)   DRY( 11, 65)   
    DRY( 11, 66)   DRY( 11, 67)   DRY( 11, 68)   DRY( 11, 69)   DRY( 11, 70)   
    DRY( 11, 71)   DRY( 11, 72)   DRY( 11, 73)   DRY( 11, 74)   DRY( 11, 75)   
    DRY( 11, 76)   DRY( 11, 77)   DRY( 11, 78)   DRY( 11, 79)   DRY( 11, 80)   
    DRY( 11, 81)   DRY( 11, 82)   DRY( 11, 83)   DRY( 11, 84)   DRY( 11, 85)   
    DRY( 11, 86)   DRY( 11, 87)   DRY( 11, 88)   DRY( 11, 89)   DRY( 11, 90)   
    DRY( 11, 91)   DRY( 11, 92)   DRY( 11, 93)   DRY( 11, 94)   DRY( 11, 95)   
    DRY( 11, 96)   DRY( 11, 97)   DRY( 11, 98)   DRY( 11, 99)   DRY( 11,100)   
    DRY( 11,101)   DRY( 11,102)   DRY( 11,103)   DRY( 11,104)   DRY( 11,105)   
    DRY( 11,106)   DRY( 11,107)   DRY( 11,108)   DRY( 11,109)   DRY( 11,110)   
    DRY( 11,111)   DRY( 11,112)   DRY( 11,113)   DRY( 11,114)   DRY( 11,115)   
    DRY( 11,116)   DRY( 11,117)   DRY( 11,118)   DRY( 11,119)   DRY( 11,120)   
    DRY( 11,121)   DRY( 11,122)   DRY( 11,123)   DRY( 11,124)   DRY( 11,125)   
    DRY( 11,126)   DRY( 11,127)   DRY( 11,128)   DRY( 11,129)   DRY( 11,130)   
    DRY( 11,131)   DRY( 11,132)   DRY( 11,133)   DRY( 11,134)   DRY( 11,135)   
    DRY( 11,136)   DRY( 11,137)   DRY( 11,138)   DRY( 11,139)   DRY( 11,140)   
    DRY( 11,141)   DRY( 11,142)   DRY( 11,143)   DRY( 11,144)   DRY( 11,145)   
    DRY( 11,146)   DRY( 11,147)   DRY( 11,148)   DRY( 11,149)   DRY( 11,150)   
    DRY( 11,151)   DRY( 11,152)   DRY( 11,153)   DRY( 11,154)   DRY( 11,155)   
    DRY( 11,156)   DRY( 11,157)   DRY( 11,158)   DRY( 11,159)   DRY( 11,160)   
    DRY( 11,161)   DRY( 11,162)   DRY( 11,163)   DRY( 11,164)   DRY( 11,165)   
    DRY( 11,166)   DRY( 11,167)   DRY( 11,168)   DRY( 11,169)   DRY( 11,170)   
    DRY( 11,171)   DRY( 11,172)   DRY( 11,173)   DRY( 11,174)   DRY( 11,175)   
    DRY( 11,176)   DRY( 11,177)   DRY( 11,178)   DRY( 11,179)   DRY( 11,180)   
    DRY( 11,181)   DRY( 11,182)   DRY( 11,183)   DRY( 11,184)   DRY( 11,185)   
    DRY( 11,186)   DRY( 11,187)   DRY( 11,188)   DRY( 11,189)   DRY( 11,190)   
    DRY( 11,191)   DRY( 11,192)   DRY( 11,193)   DRY( 11,194)   DRY( 11,195)   
    DRY( 11,196)   DRY( 11,197)   DRY( 11,198)   DRY( 11,199)   DRY( 11,200)   
    DRY( 11,201)   DRY( 11,202)   DRY( 11,203)   DRY( 11,204)   DRY( 11,205)   
    DRY( 11,206)   DRY( 11,207)   DRY( 11,208)   DRY( 11,209)   DRY( 11,210)   
    DRY( 11,211)   DRY( 11,212)   DRY( 11,213)   DRY( 11,214)   DRY( 11,215)   
    DRY( 11,216)   DRY( 11,217)   DRY( 11,218)   DRY( 11,219)   DRY( 11,220)   
    DRY( 12,  3)   DRY( 12,  4)   DRY( 12,  5)   DRY( 12,  6)   DRY( 12,  7)   
    DRY( 12,  8)   DRY( 12,  9)   DRY( 12, 10)   DRY( 12, 11)   DRY( 12, 12)   
    DRY( 12, 13)   DRY( 12, 14)   DRY( 12, 15)   DRY( 12, 16)   DRY( 12, 17)   
    DRY( 12, 18)   DRY( 12, 19)   DRY( 12, 20)   DRY( 12, 21)   DRY( 12, 22)   
    DRY( 12, 23)   DRY( 12, 24)   DRY( 12, 25)   DRY( 12, 26)   DRY( 12, 27)   
    DRY( 12, 28)   DRY( 12, 29)   DRY( 12, 30)   DRY( 12, 31)   DRY( 12, 32)   
    DRY( 12, 33)   DRY( 12, 34)   DRY( 12, 35)   DRY( 12, 36)   DRY( 12, 37)   
    DRY( 12, 38)   DRY( 12, 39)   DRY( 12, 40)   DRY( 12, 41)   DRY( 12, 42)   
    DRY( 12, 43)   DRY( 12, 44)   DRY( 12, 45)   DRY( 12, 46)   DRY( 12, 47)   
    DRY( 12, 48)   DRY( 12, 49)   DRY( 12, 50)   DRY( 12, 51)   DRY( 12, 52)   
    DRY( 12, 53)   DRY( 12, 54)   DRY( 12, 55)   DRY( 12, 56)   DRY( 12, 57)   
    DRY( 12, 58)   DRY( 12, 59)   DRY( 12, 60)   DRY( 12, 61)   DRY( 12, 62)   
    DRY( 12, 63)   DRY( 12, 64)   DRY( 12, 65)   DRY( 12, 66)   DRY( 12, 67)   
    DRY( 12, 68)   DRY( 12, 69)   DRY( 12, 70)   DRY( 12, 71)   DRY( 12, 72)   
    DRY( 12, 73)   DRY( 12, 74)   DRY( 12, 75)   DRY( 12, 76)   DRY( 12, 77)   
    DRY( 12, 78)   DRY( 12, 79)   DRY( 12, 80)   DRY( 12, 81)   DRY( 12, 82)   
    DRY( 12, 83)   DRY( 12, 84)   DRY( 12, 85)   DRY( 12, 86)   DRY( 12, 87)   
    DRY( 12, 88)   DRY( 12, 89)   DRY( 12, 90)   DRY( 12, 91)   DRY( 12, 92)   
    DRY( 12, 93)   DRY( 12, 94)   DRY( 12, 95)   DRY( 12, 96)   DRY( 12, 97)   
    DRY( 12, 98)   DRY( 12, 99)   DRY( 12,100)   DRY( 12,101)   DRY( 12,102)   
    DRY( 12,103)   DRY( 12,104)   DRY( 12,105)   DRY( 12,106)   DRY( 12,107)   
    DRY( 12,108)   DRY( 12,109)   DRY( 12,110)   DRY( 12,111)   DRY( 12,112)   
    DRY( 12,113)   DRY( 12,114)   DRY( 12,115)   DRY( 12,116)   DRY( 12,117)   
    DRY( 12,118)   DRY( 12,119)   DRY( 12,120)   DRY( 12,121)   DRY( 12,122)   
    DRY( 12,123)   DRY( 12,124)   DRY( 12,125)   DRY( 12,126)   DRY( 12,127)   
    DRY( 12,128)   DRY( 12,129)   DRY( 12,130)   DRY( 12,131)   DRY( 12,132)   
    DRY( 12,133)   DRY( 12,134)   DRY( 12,135)   DRY( 12,136)   DRY( 12,137)   
    DRY( 12,138)   DRY( 12,139)   DRY( 12,140)   DRY( 12,141)   DRY( 12,142)   
    DRY( 12,143)   DRY( 12,144)   DRY( 12,145)   DRY( 12,146)   DRY( 12,147)   
    DRY( 12,148)   DRY( 12,149)   DRY( 12,150)   DRY( 12,151)   DRY( 12,152)   
    DRY( 12,153)   DRY( 12,154)   DRY( 12,155)   DRY( 12,156)   DRY( 12,157)   
    DRY( 12,158)   DRY( 12,159)   DRY( 12,160)   DRY( 12,161)   DRY( 12,162)   
    DRY( 12,163)   DRY( 12,164)   DRY( 12,165)   DRY( 12,166)   DRY( 12,167)   
    DRY( 12,168)   DRY( 12,169)   DRY( 12,170)   DRY( 12,171)   DRY( 12,172)   
    DRY( 12,173)   DRY( 12,174)   DRY( 12,175)   DRY( 12,176)   DRY( 12,177)   
    DRY( 12,178)   DRY( 12,179)   DRY( 12,180)   DRY( 12,181)   DRY( 12,182)   
    DRY( 12,183)   DRY( 12,184)   DRY( 12,185)   DRY( 12,186)   DRY( 12,187)   
    DRY( 12,188)   DRY( 12,189)   DRY( 12,190)   DRY( 12,191)   DRY( 12,192)   
    DRY( 12,193)   DRY( 12,194)   DRY( 12,195)   DRY( 12,196)   DRY( 12,197)   
    DRY( 12,198)   DRY( 12,199)   DRY( 12,200)   DRY( 12,201)   DRY( 12,202)   
    DRY( 12,203)   DRY( 12,204)   DRY( 12,205)   DRY( 12,206)   DRY( 12,207)   
    DRY( 12,208)   DRY( 12,209)   DRY( 12,210)   DRY( 12,211)   DRY( 12,212)   
    DRY( 12,213)   DRY( 12,214)   DRY( 12,215)   DRY( 12,216)   DRY( 12,217)   
    DRY( 12,218)   DRY( 12,219)   DRY( 12,220)   DRY( 13, 13)   DRY( 13, 14)   
    DRY( 13, 15)   DRY( 13, 16)   DRY( 13, 17)   DRY( 13, 18)   DRY( 13, 19)   
    DRY( 13, 20)   DRY( 13, 21)   DRY( 13, 22)   DRY( 13, 23)   DRY( 13, 24)   
    DRY( 13, 25)   DRY( 13, 26)   DRY( 13, 27)   DRY( 13, 28)   DRY( 13, 29)   
    DRY( 13, 30)   DRY( 13, 31)   DRY( 13, 32)   DRY( 13, 33)   DRY( 13, 34)   
    DRY( 13, 35)   DRY( 13, 36)   DRY( 13, 37)   DRY( 13, 38)   DRY( 13, 39)   
    DRY( 13, 40)   DRY( 13, 41)   DRY( 13, 42)   DRY( 13, 43)   DRY( 13, 44)   
    DRY( 13, 45)   DRY( 13, 46)   DRY( 13, 47)   DRY( 13, 48)   DRY( 13, 49)   
    DRY( 13, 50)   DRY( 13, 51)   DRY( 13, 52)   DRY( 13, 53)   DRY( 13, 54)   
    DRY( 13, 55)   DRY( 13, 56)   DRY( 13, 57)   DRY( 13, 58)   DRY( 13, 59)   
    DRY( 13, 60)   DRY( 13, 61)   DRY( 13, 62)   DRY( 13, 63)   DRY( 13, 64)   
    DRY( 13, 65)   DRY( 13, 66)   DRY( 13, 67)   DRY( 13, 68)   DRY( 13, 69)   
    DRY( 13, 70)   DRY( 13, 71)   DRY( 13, 72)   DRY( 13, 73)   DRY( 13, 74)   
    DRY( 13, 75)   DRY( 13, 76)   DRY( 13, 77)   DRY( 13, 78)   DRY( 13, 79)   
    DRY( 13, 80)   DRY( 13, 81)   DRY( 13, 82)   DRY( 13, 83)   DRY( 13, 84)   
    DRY( 13, 85)   DRY( 13, 86)   DRY( 13, 87)   DRY( 13, 88)   DRY( 13, 89)   
    DRY( 13, 90)   DRY( 13, 91)   DRY( 13, 92)   DRY( 13, 93)   DRY( 13, 94)   
    DRY( 13, 95)   DRY( 13, 96)   DRY( 13, 97)   DRY( 13, 98)   DRY( 13, 99)   
    DRY( 13,100)   DRY( 13,101)   DRY( 13,102)   DRY( 13,103)   DRY( 13,104)   
    DRY( 13,105)   DRY( 13,106)   DRY( 13,107)   DRY( 13,108)   DRY( 13,109)   
    DRY( 13,110)   DRY( 13,111)   DRY( 13,112)   DRY( 13,113)   DRY( 13,114)   
    DRY( 13,115)   DRY( 13,116)   DRY( 13,117)   DRY( 13,118)   DRY( 13,119)   
    DRY( 13,120)   DRY( 13,121)   DRY( 13,122)   DRY( 13,123)   DRY( 13,124)   
    DRY( 13,125)   DRY( 13,126)   DRY( 13,127)   DRY( 13,128)   DRY( 13,129)   
    DRY( 13,130)   DRY( 13,131)   DRY( 13,132)   DRY( 13,133)   DRY( 13,134)   
    DRY( 13,135)   DRY( 13,136)   DRY( 13,137)   DRY( 13,138)   DRY( 13,139)   
    DRY( 13,140)   DRY( 13,141)   DRY( 13,142)   DRY( 13,143)   DRY( 13,144)   
    DRY( 13,145)   DRY( 13,146)   DRY( 13,147)   DRY( 13,148)   DRY( 13,149)   
    DRY( 13,150)   DRY( 13,151)   DRY( 13,152)   DRY( 13,153)   DRY( 13,154)   
    DRY( 13,155)   DRY( 13,156)   DRY( 13,157)   DRY( 13,158)   DRY( 13,159)   
    DRY( 13,160)   DRY( 13,161)   DRY( 13,162)   DRY( 13,163)   DRY( 13,164)   
    DRY( 13,165)   DRY( 13,166)   DRY( 13,167)   DRY( 13,168)   DRY( 13,169)   
    DRY( 13,170)   DRY( 13,171)   DRY( 13,172)   DRY( 13,173)   DRY( 13,174)   
    DRY( 13,175)   DRY( 13,176)   DRY( 13,177)   DRY( 13,178)   DRY( 13,179)   
    DRY( 13,180)   DRY( 13,181)   DRY( 13,182)   DRY( 13,183)   DRY( 13,184)   
    DRY( 13,185)   DRY( 13,186)   DRY( 13,187)   DRY( 13,188)   DRY( 13,189)   
    DRY( 13,190)   DRY( 13,191)   DRY( 13,192)   DRY( 13,193)   DRY( 13,194)   
    DRY( 13,195)   DRY( 13,196)   DRY( 13,197)   DRY( 13,198)   DRY( 13,199)   
    DRY( 13,200)   DRY( 13,201)   DRY( 13,202)   DRY( 13,203)   DRY( 13,204)   
    DRY( 13,205)   DRY( 13,206)   DRY( 13,207)   DRY( 13,208)   DRY( 13,209)   
    DRY( 13,210)   DRY( 13,211)   DRY( 13,212)   DRY( 13,213)   DRY( 13,214)   
    DRY( 13,215)   DRY( 13,216)   DRY( 13,217)   DRY( 13,218)   DRY( 13,219)   
    DRY( 13,220)   DRY( 14, 24)   DRY( 14, 25)   DRY( 14, 26)   DRY( 14, 27)   
    DRY( 14, 28)   DRY( 14, 29)   DRY( 14, 30)   DRY( 14, 31)   DRY( 14, 32)   
    DRY( 14, 33)   DRY( 14, 34)   DRY( 14, 35)   DRY( 14, 36)   DRY( 14, 37)   
    DRY( 14, 38)   DRY( 14, 39)   DRY( 14, 40)   DRY( 14, 41)   DRY( 14, 42)   
    DRY( 14, 43)   DRY( 14, 44)   DRY( 14, 45)   DRY( 14, 46)   DRY( 14, 47)   
    DRY( 14, 48)   DRY( 14, 49)   DRY( 14, 50)   DRY( 14, 51)   DRY( 14, 52)   
    DRY( 14, 53)   DRY( 14, 54)   DRY( 14, 55)   DRY( 14, 56)   DRY( 14, 57)   
    DRY( 14, 58)   DRY( 14, 59)   DRY( 14, 60)   DRY( 14, 61)   DRY( 14, 62)   
    DRY( 14, 63)   DRY( 14, 64)   DRY( 14, 65)   DRY( 14, 66)   DRY( 14, 67)   
    DRY( 14, 68)   DRY( 14, 69)   DRY( 14, 70)   DRY( 14, 71)   DRY( 14, 72)   
    DRY( 14, 73)   DRY( 14, 74)   DRY( 14, 75)   DRY( 14, 76)   DRY( 14, 77)   
    DRY( 14, 78)   DRY( 14, 79)   DRY( 14, 80)   DRY( 14, 81)   DRY( 14, 82)   
    DRY( 14, 83)   DRY( 14, 84)   DRY( 14, 85)   DRY( 14, 86)   DRY( 14, 87)   
    DRY( 14, 88)   DRY( 14, 89)   DRY( 14, 90)   DRY( 14, 91)   DRY( 14, 92)   
    DRY( 14, 93)   DRY( 14, 94)   DRY( 14, 95)   DRY( 14, 96)   DRY( 14, 97)   
    DRY( 14, 98)   DRY( 14, 99)   DRY( 14,100)   DRY( 14,101)   DRY( 14,102)   
    DRY( 14,103)   DRY( 14,104)   DRY( 14,105)   DRY( 14,106)   DRY( 14,107)   
    DRY( 14,108)   DRY( 14,109)   DRY( 14,110)   DRY( 14,111)   DRY( 14,112)   
    DRY( 14,113)   DRY( 14,114)   DRY( 14,115)   DRY( 14,116)   DRY( 14,117)   
    DRY( 14,118)   DRY( 14,119)   DRY( 14,120)   DRY( 14,121)   DRY( 14,122)   
    DRY( 14,123)   DRY( 14,124)   DRY( 14,125)   DRY( 14,126)   DRY( 14,127)   
    DRY( 14,128)   DRY( 14,129)   DRY( 14,130)   DRY( 14,131)   DRY( 14,132)   
    DRY( 14,133)   DRY( 14,134)   DRY( 14,135)   DRY( 14,136)   DRY( 14,137)   
    DRY( 14,138)   DRY( 14,139)   DRY( 14,140)   DRY( 14,141)   DRY( 14,142)   
    DRY( 14,143)   DRY( 14,144)   DRY( 14,145)   DRY( 14,146)   DRY( 14,147)   
    DRY( 14,148)   DRY( 14,149)   DRY( 14,150)   DRY( 14,151)   DRY( 14,152)   
    DRY( 14,153)   DRY( 14,154)   DRY( 14,155)   DRY( 14,156)   DRY( 14,157)   
    DRY( 14,158)   DRY( 14,159)   DRY( 14,160)   DRY( 14,161)   DRY( 14,162)   
    DRY( 14,163)   DRY( 14,164)   DRY( 14,165)   DRY( 14,166)   DRY( 14,167)   
    DRY( 14,168)   DRY( 14,169)   DRY( 14,170)   DRY( 14,171)   DRY( 14,172)   
    DRY( 14,173)   DRY( 14,174)   DRY( 14,175)   DRY( 14,176)   DRY( 14,177)   
    DRY( 14,178)   DRY( 14,179)   DRY( 14,180)   DRY( 14,181)   DRY( 14,182)   
    DRY( 14,183)   DRY( 14,184)   DRY( 14,185)   DRY( 14,186)   DRY( 14,187)   
    DRY( 14,188)   DRY( 14,189)   DRY( 14,190)   DRY( 14,191)   DRY( 14,192)   
    DRY( 14,193)   DRY( 14,194)   DRY( 14,195)   DRY( 14,196)   DRY( 14,197)   
    DRY( 14,198)   DRY( 14,199)   DRY( 14,200)   DRY( 14,201)   DRY( 14,202)   
    DRY( 14,203)   DRY( 14,204)   DRY( 14,205)   DRY( 14,206)   DRY( 14,207)   
    DRY( 14,208)   DRY( 14,209)   DRY( 14,210)   DRY( 14,211)   DRY( 14,212)   
    DRY( 14,213)   DRY( 14,214)   DRY( 14,215)   DRY( 14,216)   DRY( 14,217)   
    DRY( 14,218)   DRY( 14,219)   DRY( 14,220)   DRY( 15, 35)   DRY( 15, 36)   
    DRY( 15, 37)   DRY( 15, 38)   DRY( 15, 39)   DRY( 15, 40)   DRY( 15, 41)   
    DRY( 15, 42)   DRY( 15, 43)   DRY( 15, 44)   DRY( 15, 45)   DRY( 15, 46)   
    DRY( 15, 47)   DRY( 15, 48)   DRY( 15, 49)   DRY( 15, 50)   DRY( 15, 51)   
    DRY( 15, 52)   DRY( 15, 53)   DRY( 15, 54)   DRY( 15, 55)   DRY( 15, 56)   
    DRY( 15, 57)   DRY( 15, 58)   DRY( 15, 59)   DRY( 15, 60)   DRY( 15, 61)   
    DRY( 15, 62)   DRY( 15, 63)   DRY( 15, 64)   DRY( 15, 65)   DRY( 15, 66)   
    DRY( 15, 67)   DRY( 15, 68)   DRY( 15, 69)   DRY( 15, 70)   DRY( 15, 71)   
    DRY( 15, 72)   DRY( 15, 73)   DRY( 15, 74)   DRY( 15, 75)   DRY( 15, 76)   
    DRY( 15, 77)   DRY( 15, 78)   DRY( 15, 79)   DRY( 15, 80)   DRY( 15, 81)   
    DRY( 15, 82)   DRY( 15, 83)   DRY( 15, 84)   DRY( 15, 85)   DRY( 15, 86)   
    DRY( 15, 87)   DRY( 15, 88)   DRY( 15, 89)   DRY( 15, 90)   DRY( 15, 91)   
    DRY( 15, 92)   DRY( 15, 93)   DRY( 15, 94)   DRY( 15, 95)   DRY( 15, 96)   
    DRY( 15, 97)   DRY( 15, 98)   DRY( 15, 99)   DRY( 15,100)   DRY( 15,101)   
    DRY( 15,102)   DRY( 15,103)   DRY( 15,104)   DRY( 15,105)   DRY( 15,106)   
    DRY( 15,107)   DRY( 15,108)   DRY( 15,109)   DRY( 15,110)   DRY( 15,111)   
    DRY( 15,112)   DRY( 15,113)   DRY( 15,114)   DRY( 15,115)   DRY( 15,116)   
    DRY( 15,117)   DRY( 15,118)   DRY( 15,119)   DRY( 15,120)   DRY( 15,121)   
    DRY( 15,122)   DRY( 15,123)   DRY( 15,124)   DRY( 15,125)   DRY( 15,126)   
    DRY( 15,127)   DRY( 15,128)   DRY( 15,129)   DRY( 15,130)   DRY( 15,131)   
    DRY( 15,132)   DRY( 15,133)   DRY( 15,134)   DRY( 15,135)   DRY( 15,136)   
    DRY( 15,137)   DRY( 15,138)   DRY( 15,139)   DRY( 15,140)   DRY( 15,141)   
    DRY( 15,142)   DRY( 15,143)   DRY( 15,144)   DRY( 15,145)   DRY( 15,146)   
    DRY( 15,147)   DRY( 15,148)   DRY( 15,149)   DRY( 15,150)   DRY( 15,151)   
    DRY( 15,152)   DRY( 15,153)   DRY( 15,154)   DRY( 15,155)   DRY( 15,156)   
    DRY( 15,157)   DRY( 15,158)   DRY( 15,159)   DRY( 15,160)   DRY( 15,161)   
    DRY( 15,162)   DRY( 15,163)   DRY( 15,164)   DRY( 15,165)   DRY( 15,166)   
    DRY( 15,167)   DRY( 15,168)   DRY( 15,169)   DRY( 15,170)   DRY( 15,171)   
    DRY( 15,172)   DRY( 15,173)   DRY( 15,174)   DRY( 15,175)   DRY( 15,176)   
    DRY( 15,177)   DRY( 15,178)   DRY( 15,179)   DRY( 15,180)   DRY( 15,181)   
    DRY( 15,182)   DRY( 15,183)   DRY( 15,184)   DRY( 15,185)   DRY( 15,186)   
    DRY( 15,187)   DRY( 15,188)   DRY( 15,189)   DRY( 15,190)   DRY( 15,191)   
    DRY( 15,192)   DRY( 15,193)   DRY( 15,194)   DRY( 15,195)   DRY( 15,196)   
    DRY( 15,197)   DRY( 15,204)   DRY( 15,205)   DRY( 15,206)   DRY( 15,207)   
    DRY( 15,208)   DRY( 15,209)   DRY( 15,210)   DRY( 15,211)   DRY( 15,212)   
    DRY( 15,213)   DRY( 15,214)   DRY( 15,215)   DRY( 15,216)   DRY( 15,217)   
    DRY( 15,218)   DRY( 15,219)   DRY( 15,220)   DRY( 16,106)   DRY( 16,107)   
    DRY( 16,108)   DRY( 16,109)   DRY( 16,110)   DRY( 16,111)   DRY( 16,112)   
    DRY( 16,113)   DRY( 16,114)   DRY( 16,115)   DRY( 16,116)   DRY( 16,117)   
    DRY( 16,118)   DRY( 16,119)   DRY( 16,120)   DRY( 16,123)   DRY( 16,124)   
    DRY( 16,125)   DRY( 16,126)   DRY( 16,127)   DRY( 16,128)   DRY( 16,129)   
    DRY( 16,130)   DRY( 16,131)   DRY( 16,132)   DRY( 16,133)   DRY( 16,134)   
    DRY( 16,135)   DRY( 16,136)   DRY( 16,137)   DRY( 16,138)   DRY( 16,149)   
    DRY( 16,150)   DRY( 16,151)   DRY( 16,152)   DRY( 16,153)   DRY( 16,154)   
    DRY( 16,155)   DRY( 16,156)   DRY( 16,157)   DRY( 16,158)   DRY( 16,159)   
    DRY( 16,160)   DRY( 16,171)   DRY( 16,172)   DRY( 16,173)   DRY( 16,174)   
    DRY( 16,175)   DRY( 16,176)   DRY( 16,177)   DRY( 16,178)   DRY( 16,179)   
    DRY( 16,180)   DRY( 16,181)   DRY( 16,182)   DRY( 16,183)   DRY( 16,184)   
    DRY( 16,185)   DRY( 16,186)   DRY( 16,187)   DRY( 16,188)   DRY( 16,189)   
    DRY( 16,190)   DRY( 16,191)   DRY( 16,192)   DRY( 16,193)   DRY( 16,194)   
    DRY( 16,195)   DRY( 16,206)   DRY( 16,207)   DRY( 16,208)   DRY( 16,209)   
    DRY( 16,210)   DRY( 16,211)   DRY( 16,212)   DRY( 16,213)   DRY( 16,214)   
    DRY( 16,215)   DRY( 16,216)   DRY( 16,217)   DRY( 16,218)   DRY( 16,219)   
    DRY( 16,220)   DRY( 17,190)   DRY( 17,191)   DRY( 17,192)   DRY( 17,193)   
    DRY( 17,208)   DRY( 17,209)   DRY( 17,210)   DRY( 17,211)   DRY( 17,212)   
    DRY( 17,213)   DRY( 17,214)   DRY( 17,218)   DRY( 17,219)   DRY( 17,220)   
    DRY( 18,210)   DRY( 18,211)   DRY( 18,212)   DRY( 18,213)   DRY( 18,214)   
    DRY( 19,212)   DRY( 19,213)   DRY( 19,214)   

 CELL CONVERSIONS FOR ITER.=  3  LAYER=  9  STEP=  1  PERIOD=   1   (ROW,COL)
    DRY( 13,  1)   DRY( 13,  2)   DRY( 13,  3)   DRY( 13,  4)   DRY( 13,  5)   
    DRY( 13,  6)   DRY( 13,  7)   DRY( 13,  8)   DRY( 13,  9)   DRY( 13, 10)   
    DRY( 13, 11)   DRY( 13, 12)   DRY( 13, 13)   DRY( 13, 14)   DRY( 13, 15)   
    DRY( 13, 39)   DRY( 13, 40)   DRY( 13, 41)   DRY( 13, 42)   DRY( 13, 43)   
    DRY( 13, 44)   DRY( 13, 45)   DRY( 13, 46)   DRY( 13, 47)   DRY( 13, 48)   
    DRY( 13, 49)   DRY( 13, 50)   DRY( 13, 51)   DRY( 13, 52)   DRY( 13, 53)   
    DRY( 13, 54)   DRY( 13, 55)   DRY( 13, 56)   DRY( 13, 57)   DRY( 13, 58)   
    DRY( 13, 59)   DRY( 13, 60)   DRY( 13, 61)   DRY( 13, 62)   DRY( 13, 63)   
    DRY( 13, 64)   DRY( 13, 65)   DRY( 13, 66)   DRY( 13, 67)   DRY( 13, 68)   
    DRY( 13, 69)   DRY( 13, 70)   DRY( 13, 71)   DRY( 13, 72)   DRY( 13, 73)   
    DRY( 13, 74)   DRY( 13, 75)   DRY( 13, 76)   DRY( 13, 77)   DRY( 13, 78)   
    DRY( 13, 79)   DRY( 13, 80)   DRY( 13, 81)   DRY( 13, 82)   DRY( 13, 83)   
    DRY( 13, 84)   DRY( 13, 85)   DRY( 13, 86)   DRY( 13, 87)   DRY( 13, 88)   
    DRY( 13, 89)   DRY( 13, 90)   DRY( 13, 91)   DRY( 13, 92)   DRY( 13, 93)   
    DRY( 13, 94)   DRY( 13, 95)   DRY( 13, 96)   DRY( 13, 97)   DRY( 13, 98)   
    DRY( 13, 99)   DRY( 13,100)   DRY( 13,101)   DRY( 13,102)   DRY( 13,103)   
    DRY( 13,104)   DRY( 13,105)   DRY( 13,106)   DRY( 13,107)   DRY( 13,108)   
    DRY( 13,109)   DRY( 13,110)   DRY( 13,111)   DRY( 13,112)   DRY( 13,113)   
    DRY( 13,114)   DRY( 13,115)   DRY( 13,116)   DRY( 13,117)   DRY( 13,118)   
    DRY( 13,119)   DRY( 13,120)   DRY( 13,121)   DRY( 13,122)   DRY( 13,123)   
    DRY( 13,124)   DRY( 13,125)   DRY( 13,126)   DRY( 13,127)   DRY( 13,128)   
    DRY( 13,129)   DRY( 13,130)   DRY( 13,131)   DRY( 13,132)   DRY( 13,133)   
    DRY( 13,134)   DRY( 13,135)   DRY( 13,136)   DRY( 13,137)   DRY( 13,138)   
    DRY( 13,139)   DRY( 13,140)   DRY( 13,141)   DRY( 13,142)   DRY( 13,143)   
    DRY( 13,144)   DRY( 13,145)   DRY( 13,146)   DRY( 13,147)   DRY( 13,148)   
    DRY( 13,149)   DRY( 13,150)   DRY( 13,151)   DRY( 13,152)   DRY( 13,153)   
    DRY( 13,154)   DRY( 13,155)   DRY( 13,156)   DRY( 13,157)   DRY( 13,158)   
    DRY( 13,159)   DRY( 13,160)   DRY( 13,161)   DRY( 13,162)   DRY( 13,163)   
    DRY( 13,164)   DRY( 13,165)   DRY( 13,166)   DRY( 13,167)   DRY( 13,168)   
    DRY( 13,169)   DRY( 13,170)   DRY( 13,171)   DRY( 13,172)   DRY( 13,173)   
    DRY( 13,174)   DRY( 13,175)   DRY( 13,176)   DRY( 13,177)   DRY( 13,178)   
    DRY( 13,179)   DRY( 13,180)   DRY( 13,181)   DRY( 13,182)   DRY( 13,183)   
    DRY( 13,184)   DRY( 13,185)   DRY( 13,186)   DRY( 13,187)   DRY( 13,188)   
    DRY( 13,189)   DRY( 13,190)   DRY( 13,191)   DRY( 13,192)   DRY( 13,193)   
    DRY( 13,194)   DRY( 13,195)   DRY( 13,196)   DRY( 13,197)   DRY( 13,198)   
    DRY( 14,  1)   DRY( 14,  2)   DRY( 14,  3)   DRY( 14,  4)   DRY( 14,  5)   
    DRY( 14,  6)   DRY( 14,  7)   DRY( 14,  8)   DRY( 14,  9)   DRY( 14, 10)   
    DRY( 14, 11)   DRY( 14, 12)   DRY( 14, 13)   DRY( 14, 14)   DRY( 14, 15)   
    DRY( 14, 16)   DRY( 14, 17)   DRY( 14, 18)   DRY( 14, 19)   DRY( 14, 20)   
    DRY( 14, 21)   DRY( 14, 22)   DRY( 14, 23)   DRY( 14, 24)   DRY( 14, 25)   
    DRY( 14, 26)   DRY( 14, 27)   DRY( 14, 28)   DRY( 14, 29)   DRY( 14, 30)   
    DRY( 14, 31)   DRY( 14, 32)   DRY( 14, 33)   DRY( 14, 34)   DRY( 14, 35)   
    DRY( 14, 36)   DRY( 14, 37)   DRY( 14, 38)   DRY( 14, 39)   DRY( 14, 40)   
    DRY( 14, 41)   DRY( 14, 42)   DRY( 14, 43)   DRY( 14, 44)   DRY( 14, 45)   
    DRY( 14, 46)   DRY( 14, 47)   DRY( 14, 48)   DRY( 14, 49)   DRY( 14, 50)   
    DRY( 14, 51)   DRY( 14, 52)   DRY( 14, 53)   DRY( 14, 54)   DRY( 14, 55)   
    DRY( 14, 56)   DRY( 14, 57)   DRY( 14, 58)   DRY( 14, 59)   DRY( 14, 60)   
    DRY( 14, 61)   DRY( 14, 62)   DRY( 14, 63)   DRY( 14, 64)   DRY( 14, 65)   
    DRY( 14, 66)   DRY( 14, 67)   DRY( 14, 68)   DRY( 14, 69)   DRY( 14, 70)   
    DRY( 14, 71)   DRY( 14, 72)   DRY( 14, 73)   DRY( 14, 74)   DRY( 14, 75)   
    DRY( 14, 76)   DRY( 14, 77)   DRY( 14, 78)   DRY( 14, 79)   DRY( 14, 80)   
    DRY( 14, 81)   DRY( 14, 82)   DRY( 14, 83)   DRY( 14, 84)   DRY( 14, 85)   
    DRY( 14, 86)   DRY( 14, 87)   DRY( 14, 88)   DRY( 14, 89)   DRY( 14, 90)   
    DRY( 14, 91)   DRY( 14, 92)   DRY( 14, 93)   DRY( 14, 94)   DRY( 14, 95)   
    DRY( 14, 96)   DRY( 14, 97)   DRY( 14, 98)   DRY( 14, 99)   DRY( 14,100)   
    DRY( 14,101)   DRY( 14,102)   DRY( 14,103)   DRY( 14,104)   DRY( 14,105)   
    DRY( 14,106)   DRY( 14,107)   DRY( 14,108)   DRY( 14,109)   DRY( 14,110)   
    DRY( 14,111)   DRY( 14,112)   DRY( 14,113)   DRY( 14,114)   DRY( 14,115)   
    DRY( 14,116)   DRY( 14,117)   DRY( 14,118)   DRY( 14,119)   DRY( 14,120)   
    DRY( 14,121)   DRY( 14,122)   DRY( 14,123)   DRY( 14,124)   DRY( 14,125)   
    DRY( 14,126)   DRY( 14,127)   DRY( 14,128)   DRY( 14,129)   DRY( 14,130)   
    DRY( 14,131)   DRY( 14,132)   DRY( 14,133)   DRY( 14,134)   DRY( 14,135)   
    DRY( 14,136)   DRY( 14,137)   DRY( 14,138)   DRY( 14,139)   DRY( 14,140)   
    DRY( 14,141)   DRY( 14,142)   DRY( 14,143)   DRY( 14,144)   DRY( 14,145)   
    DRY( 14,146)   DRY( 14,147)   DRY( 14,148)   DRY( 14,149)   DRY( 14,150)   
    DRY( 14,151)   DRY( 14,152)   DRY( 14,153)   DRY( 14,154)   DRY( 14,155)   
    DRY( 14,156)   DRY( 14,157)   DRY( 14,158)   DRY( 14,159)   DRY( 14,160)   
    DRY( 14,161)   DRY( 14,162)   DRY( 14,163)   DRY( 14,164)   DRY( 14,165)   
    DRY( 14,166)   DRY( 14,167)   DRY( 14,168)   DRY( 14,169)   DRY( 14,170)   
    DRY( 14,171)   DRY( 14,172)   DRY( 14,173)   DRY( 14,174)   DRY( 14,175)   
    DRY( 14,176)   DRY( 14,177)   DRY( 14,178)   DRY( 14,179)   DRY( 14,180)   
    DRY( 14,181)   DRY( 14,182)   DRY( 14,183)   DRY( 14,184)   DRY( 14,185)   
    DRY( 14,186)   DRY( 14,187)   DRY( 14,188)   DRY( 14,189)   DRY( 14,190)   
    DRY( 14,191)   DRY( 14,192)   DRY( 14,193)   DRY( 14,194)   DRY( 14,195)   
    DRY( 14,196)   DRY( 14,197)   DRY( 14,198)   DRY( 14,199)   DRY( 14,200)   
    DRY( 14,201)   DRY( 14,202)   DRY( 14,203)   DRY( 14,204)   DRY( 14,205)   
    DRY( 14,206)   DRY( 14,207)   DRY( 14,208)   DRY( 14,209)   DRY( 14,210)   
    DRY( 14,211)   DRY( 14,212)   DRY( 14,213)   DRY( 14,214)   DRY( 14,215)   
    DRY( 14,216)   DRY( 14,217)   DRY( 14,218)   DRY( 14,219)   DRY( 14,220)   
    DRY( 15,  1)   DRY( 15,  2)   DRY( 15,  3)   DRY( 15,  4)   DRY( 15,  5)   
    DRY( 15,  6)   DRY( 15,  7)   DRY( 15,  8)   DRY( 15,  9)   DRY( 15, 10)   
    DRY( 15, 11)   DRY( 15, 12)   DRY( 15, 13)   DRY( 15, 14)   DRY( 15, 15)   
    DRY( 15, 16)   DRY( 15, 17)   DRY( 15, 18)   DRY( 15, 19)   DRY( 15, 20)   
    DRY( 15, 21)   DRY( 15, 22)   DRY( 15, 23)   DRY( 15, 24)   DRY( 15, 25)   
    DRY( 15, 26)   DRY( 15, 27)   DRY( 15, 28)   DRY( 15, 29)   DRY( 15, 30)   
    DRY( 15, 31)   DRY( 15, 32)   DRY( 15, 33)   DRY( 15, 34)   DRY( 15, 35)   
    DRY( 15, 36)   DRY( 15, 37)   DRY( 15, 38)   DRY( 15, 39)   DRY( 15, 40)   
    DRY( 15, 41)   DRY( 15, 42)   DRY( 15, 43)   DRY( 15, 44)   DRY( 15, 45)   
    DRY( 15, 46)   DRY( 15, 47)   DRY( 15, 48)   DRY( 15, 49)   DRY( 15, 50)   
    DRY( 15, 51)   DRY( 15, 52)   DRY( 15, 53)   DRY( 15, 54)   DRY( 15, 55)   
    DRY( 15, 56)   DRY( 15, 57)   DRY( 15, 58)   DRY( 15, 59)   DRY( 15, 60)   
    DRY( 15, 61)   DRY( 15, 62)   DRY( 15, 63)   DRY( 15, 64)   DRY( 15, 65)   
    DRY( 15, 66)   DRY( 15, 67)   DRY( 15, 68)   DRY( 15, 69)   DRY( 15, 70)   
    DRY( 15, 71)   DRY( 15, 72)   DRY( 15, 73)   DRY( 15, 74)   DRY( 15, 75)   
    DRY( 15, 76)   DRY( 15, 77)   DRY( 15, 78)   DRY( 15, 79)   DRY( 15, 80)   
    DRY( 15, 81)   DRY( 15, 82)   DRY( 15, 83)   DRY( 15, 84)   DRY( 15, 85)   
    DRY( 15, 86)   DRY( 15, 87)   DRY( 15, 88)   DRY( 15, 89)   DRY( 15, 90)   
    DRY( 15, 91)   DRY( 15, 92)   DRY( 15, 93)   DRY( 15, 94)   DRY( 15, 95)   
    DRY( 15, 96)   DRY( 15, 97)   DRY( 15, 98)   DRY( 15, 99)   DRY( 15,100)   
    DRY( 15,101)   DRY( 15,102)   DRY( 15,103)   DRY( 15,104)   DRY( 15,105)   
    DRY( 15,106)   DRY( 15,107)   DRY( 15,108)   DRY( 15,109)   DRY( 15,110)   
    DRY( 15,111)   DRY( 15,112)   DRY( 15,113)   DRY( 15,114)   DRY( 15,115)   
    DRY( 15,116)   DRY( 15,117)   DRY( 15,118)   DRY( 15,119)   DRY( 15,120)   
    DRY( 15,121)   DRY( 15,122)   DRY( 15,123)   DRY( 15,124)   DRY( 15,125)   
    DRY( 15,126)   DRY( 15,127)   DRY( 15,128)   DRY( 15,129)   DRY( 15,130)   
    DRY( 15,131)   DRY( 15,132)   DRY( 15,133)   DRY( 15,134)   DRY( 15,135)   
    DRY( 15,136)   DRY( 15,137)   DRY( 15,138)   DRY( 15,139)   DRY( 15,140)   
    DRY( 15,141)   DRY( 15,142)   DRY( 15,143)   DRY( 15,144)   DRY( 15,145)   
    DRY( 15,146)   DRY( 15,147)   DRY( 15,148)   DRY( 15,149)   DRY( 15,150)   
    DRY( 15,151)   DRY( 15,152)   DRY( 15,153)   DRY( 15,154)   DRY( 15,155)   
    DRY( 15,156)   DRY( 15,157)   DRY( 15,158)   DRY( 15,159)   DRY( 15,160)   
    DRY( 15,161)   DRY( 15,162)   DRY( 15,163)   DRY( 15,164)   DRY( 15,165)   
    DRY( 15,166)   DRY( 15,167)   DRY( 15,168)   DRY( 15,169)   DRY( 15,170)   
    DRY( 15,171)   DRY( 15,172)   DRY( 15,173)   DRY( 15,174)   DRY( 15,175)   
    DRY( 15,176)   DRY( 15,177)   DRY( 15,178)   DRY( 15,179)   DRY( 15,180)   
    DRY( 15,181)   DRY( 15,182)   DRY( 15,183)   DRY( 15,184)   DRY( 15,185)   
    DRY( 15,186)   DRY( 15,187)   DRY( 15,188)   DRY( 15,189)   DRY( 15,190)   
    DRY( 15,191)   DRY( 15,192)   DRY( 15,193)   DRY( 15,194)   DRY( 15,195)   
    DRY( 15,196)   DRY( 15,197)   DRY( 15,198)   DRY( 15,199)   DRY( 15,200)   
    DRY( 15,201)   DRY( 15,202)   DRY( 15,203)   DRY( 15,204)   DRY( 15,205)   
    DRY( 15,206)   DRY( 15,207)   DRY( 15,208)   DRY( 15,209)   DRY( 15,210)   
    DRY( 15,211)   DRY( 15,212)   DRY( 15,213)   DRY( 15,214)   DRY( 15,215)   
    DRY( 15,216)   DRY( 15,217)   DRY( 15,218)   DRY( 15,219)   DRY( 15,220)   
    DRY( 16,  4)   DRY( 16,  5)   DRY( 16,  6)   DRY( 16,  7)   DRY( 16,  8)   
    DRY( 16,  9)   DRY( 16, 10)   DRY( 16, 11)   DRY( 16, 12)   DRY( 16, 13)   
    DRY( 16, 14)   DRY( 16, 15)   DRY( 16, 16)   DRY( 16, 17)   DRY( 16, 18)   
    DRY( 16, 19)   DRY( 16, 20)   DRY( 16, 21)   DRY( 16, 22)   DRY( 16, 23)   
    DRY( 16, 24)   DRY( 16, 25)   DRY( 16, 26)   DRY( 16, 27)   DRY( 16, 28)   
    DRY( 16, 29)   DRY( 16, 30)   DRY( 16, 31)   DRY( 16, 32)   DRY( 16, 33)   
    DRY( 16, 34)   DRY( 16, 35)   DRY( 16, 36)   DRY( 16, 37)   DRY( 16, 38)   
    DRY( 16, 39)   DRY( 16, 40)   DRY( 16, 41)   DRY( 16, 42)   DRY( 16, 43)   
    DRY( 16, 44)   DRY( 16, 45)   DRY( 16, 46)   DRY( 16, 47)   DRY( 16, 48)   
    DRY( 16, 49)   DRY( 16, 50)   DRY( 16, 51)   DRY( 16, 52)   DRY( 16, 53)   
    DRY( 16, 54)   DRY( 16, 55)   DRY( 16, 56)   DRY( 16, 57)   DRY( 16, 58)   
    DRY( 16, 59)   DRY( 16, 60)   DRY( 16, 61)   DRY( 16, 62)   DRY( 16, 63)   
    DRY( 16, 64)   DRY( 16, 65)   DRY( 16, 66)   DRY( 16, 67)   DRY( 16, 68)   
    DRY( 16, 69)   DRY( 16, 70)   DRY( 16, 71)   DRY( 16, 72)   DRY( 16, 73)   
    DRY( 16, 74)   DRY( 16, 75)   DRY( 16, 76)   DRY( 16, 77)   DRY( 16, 78)   
    DRY( 16, 79)   DRY( 16, 80)   DRY( 16, 81)   DRY( 16, 82)   DRY( 16, 83)   
    DRY( 16, 84)   DRY( 16, 85)   DRY( 16, 86)   DRY( 16, 87)   DRY( 16, 88)   
    DRY( 16, 89)   DRY( 16, 90)   DRY( 16, 91)   DRY( 16, 92)   DRY( 16, 93)   
    DRY( 16, 94)   DRY( 16, 95)   DRY( 16, 96)   DRY( 16, 97)   DRY( 16, 98)   
    DRY( 16, 99)   DRY( 16,100)   DRY( 16,101)   DRY( 16,102)   DRY( 16,103)   
    DRY( 16,104)   DRY( 16,105)   DRY( 16,106)   DRY( 16,107)   DRY( 16,108)   
    DRY( 16,109)   DRY( 16,110)   DRY( 16,111)   DRY( 16,112)   DRY( 16,113)   
    DRY( 16,114)   DRY( 16,115)   DRY( 16,116)   DRY( 16,117)   DRY( 16,118)   
    DRY( 16,119)   DRY( 16,120)   DRY( 16,121)   DRY( 16,122)   DRY( 16,123)   
    DRY( 16,124)   DRY( 16,125)   DRY( 16,126)   DRY( 16,127)   DRY( 16,128)   
    DRY( 16,129)   DRY( 16,130)   DRY( 16,131)   DRY( 16,132)   DRY( 16,133)   
    DRY( 16,134)   DRY( 16,135)   DRY( 16,136)   DRY( 16,137)   DRY( 16,138)   
    DRY( 16,139)   DRY( 16,140)   DRY( 16,141)   DRY( 16,142)   DRY( 16,143)   
    DRY( 16,144)   DRY( 16,145)   DRY( 16,146)   DRY( 16,147)   DRY( 16,148)   
    DRY( 16,149)   DRY( 16,150)   DRY( 16,151)   DRY( 16,152)   DRY( 16,153)   
    DRY( 16,154)   DRY( 16,155)   DRY( 16,156)   DRY( 16,157)   DRY( 16,158)   
    DRY( 16,159)   DRY( 16,160)   DRY( 16,161)   DRY( 16,162)   DRY( 16,163)   
    DRY( 16,164)   DRY( 16,165)   DRY( 16,166)   DRY( 16,167)   DRY( 16,168)   
    DRY( 16,169)   DRY( 16,170)   DRY( 16,171)   DRY( 16,172)   DRY( 16,173)   
    DRY( 16,174)   DRY( 16,175)   DRY( 16,176)   DRY( 16,177)   DRY( 16,178)   
    DRY( 16,179)   DRY( 16,180)   DRY( 16,181)   DRY( 16,182)   DRY( 16,183)   
    DRY( 16,184)   DRY( 16,185)   DRY( 16,186)   DRY( 16,187)   DRY( 16,188)   
    DRY( 16,189)   DRY( 16,190)   DRY( 16,191)   DRY( 16,192)   DRY( 16,193)   
    DRY( 16,194)   DRY( 16,195)   DRY( 16,196)   DRY( 16,197)   DRY( 16,198)   
    DRY( 16,199)   DRY( 16,200)   DRY( 16,201)   DRY( 16,202)   DRY( 16,203)   
    DRY( 16,204)   DRY( 16,205)   DRY( 16,206)   DRY( 16,207)   DRY( 16,208)   
    DRY( 16,209)   DRY( 16,210)   DRY( 16,211)   DRY( 16,212)   DRY( 16,213)   
    DRY( 16,214)   DRY( 16,215)   DRY( 16,216)   DRY( 16,217)   DRY( 16,218)   
    DRY( 16,219)   DRY( 16,220)   DRY( 17, 11)   DRY( 17, 12)   DRY( 17, 13)   
    DRY( 17, 14)   DRY( 17, 15)   DRY( 17, 16)   DRY( 17, 17)   DRY( 17, 18)   
    DRY( 17, 19)   DRY( 17, 20)   DRY( 17, 21)   DRY( 17, 22)   DRY( 17, 23)   
    DRY( 17, 24)   DRY( 17, 25)   DRY( 17, 26)   DRY( 17, 27)   DRY( 17, 28)   
    DRY( 17, 29)   DRY( 17, 30)   DRY( 17, 31)   DRY( 17, 32)   DRY( 17, 33)   
    DRY( 17, 34)   DRY( 17, 35)   DRY( 17, 36)   DRY( 17, 37)   DRY( 17, 38)   
    DRY( 17, 39)   DRY( 17, 40)   DRY( 17, 41)   DRY( 17, 42)   DRY( 17, 43)   
    DRY( 17, 44)   DRY( 17, 45)   DRY( 17, 46)   DRY( 17, 47)   DRY( 17, 48)   
    DRY( 17, 49)   DRY( 17, 50)   DRY( 17, 51)   DRY( 17, 52)   DRY( 17, 53)   
    DRY( 17, 54)   DRY( 17, 55)   DRY( 17, 56)   DRY( 17, 57)   DRY( 17, 58)   
    DRY( 17, 59)   DRY( 17, 60)   DRY( 17, 61)   DRY( 17, 62)   DRY( 17, 63)   
    DRY( 17, 64)   DRY( 17, 65)   DRY( 17, 66)   DRY( 17, 67)   DRY( 17, 68)   
    DRY( 17, 69)   DRY( 17, 70)   DRY( 17, 71)   DRY( 17, 72)   DRY( 17, 73)   
    DRY( 17, 74)   DRY( 17, 75)   DRY( 17, 76)   DRY( 17, 77)   DRY( 17, 78)   
    DRY( 17, 79)   DRY( 17, 80)   DRY( 17, 81)   DRY( 17, 82)   DRY( 17, 83)   
    DRY( 17, 84)   DRY( 17, 85)   DRY( 17, 86)   DRY( 17, 87)   DRY( 17, 88)   
    DRY( 17, 89)   DRY( 17, 90)   DRY( 17, 91)   DRY( 17, 92)   DRY( 17, 93)   
    DRY( 17, 94)   DRY( 17, 95)   DRY( 17, 96)   DRY( 17, 97)   DRY( 17, 98)   
    DRY( 17, 99)   DRY( 17,100)   DRY( 17,101)   DRY( 17,102)   DRY( 17,103)   
    DRY( 17,104)   DRY( 17,105)   DRY( 17,106)   DRY( 17,107)   DRY( 17,108)   
    DRY( 17,109)   DRY( 17,110)   DRY( 17,111)   DRY( 17,112)   DRY( 17,113)   
    DRY( 17,114)   DRY( 17,115)   DRY( 17,116)   DRY( 17,117)   DRY( 17,118)   
    DRY( 17,119)   DRY( 17,120)   DRY( 17,121)   DRY( 17,122)   DRY( 17,123)   
    DRY( 17,124)   DRY( 17,125)   DRY( 17,126)   DRY( 17,127)   DRY( 17,128)   
    DRY( 17,129)   DRY( 17,130)   DRY( 17,131)   DRY( 17,132)   DRY( 17,133)   
    DRY( 17,134)   DRY( 17,135)   DRY( 17,136)   DRY( 17,137)   DRY( 17,138)   
    DRY( 17,139)   DRY( 17,140)   DRY( 17,141)   DRY( 17,142)   DRY( 17,143)   
    DRY( 17,144)   DRY( 17,145)   DRY( 17,146)   DRY( 17,147)   DRY( 17,148)   
    DRY( 17,149)   DRY( 17,150)   DRY( 17,151)   DRY( 17,152)   DRY( 17,153)   
    DRY( 17,154)   DRY( 17,155)   DRY( 17,156)   DRY( 17,157)   DRY( 17,158)   
    DRY( 17,159)   DRY( 17,160)   DRY( 17,161)   DRY( 17,162)   DRY( 17,163)   
    DRY( 17,164)   DRY( 17,165)   DRY( 17,166)   DRY( 17,167)   DRY( 17,168)   
    DRY( 17,169)   DRY( 17,170)   DRY( 17,171)   DRY( 17,172)   DRY( 17,173)   
    DRY( 17,174)   DRY( 17,175)   DRY( 17,176)   DRY( 17,177)   DRY( 17,178)   
    DRY( 17,179)   DRY( 17,180)   DRY( 17,181)   DRY( 17,182)   DRY( 17,183)   
    DRY( 17,184)   DRY( 17,185)   DRY( 17,186)   DRY( 17,187)   DRY( 17,188)   
    DRY( 17,189)   DRY( 17,190)   DRY( 17,191)   DRY( 17,192)   DRY( 17,193)   
    DRY( 17,194)   DRY( 17,195)   DRY( 17,196)   DRY( 17,197)   DRY( 17,198)   
    DRY( 17,199)   DRY( 17,200)   DRY( 17,201)   DRY( 17,202)   DRY( 17,203)   
    DRY( 17,204)   DRY( 17,205)   DRY( 17,206)   DRY( 17,207)   DRY( 17,208)   
    DRY( 17,209)   DRY( 17,210)   DRY( 17,211)   DRY( 17,212)   DRY( 17,213)   
    DRY( 17,214)   DRY( 17,215)   DRY( 17,216)   DRY( 17,217)   DRY( 17,218)   
    DRY( 17,219)   DRY( 17,220)   DRY( 18, 33)   DRY( 18, 34)   DRY( 18, 35)   
    DRY( 18, 36)   DRY( 18, 37)   DRY( 18, 38)   DRY( 18, 39)   DRY( 18, 40)   
    DRY( 18, 41)   DRY( 18, 42)   DRY( 18, 43)   DRY( 18, 44)   DRY( 18, 45)   
    DRY( 18, 46)   DRY( 18, 47)   DRY( 18, 48)   DRY( 18, 49)   DRY( 18, 50)   
    DRY( 18, 51)   DRY( 18, 52)   DRY( 18, 53)   DRY( 18, 54)   DRY( 18, 55)   
    DRY( 18, 56)   DRY( 18, 57)   DRY( 18, 58)   DRY( 18, 59)   DRY( 18, 60)   
    DRY( 18, 61)   DRY( 18, 62)   DRY( 18, 63)   DRY( 18, 64)   DRY( 18, 65)   
    DRY( 18, 66)   DRY( 18, 67)   DRY( 18, 68)   DRY( 18, 69)   DRY( 18, 70)   
    DRY( 18, 71)   DRY( 18, 72)   DRY( 18, 73)   DRY( 18, 74)   DRY( 18, 75)   
    DRY( 18, 76)   DRY( 18, 77)   DRY( 18, 78)   DRY( 18, 79)   DRY( 18, 80)   
    DRY( 18, 81)   DRY( 18, 82)   DRY( 18, 83)   DRY( 18, 84)   DRY( 18, 85)   
    DRY( 18, 86)   DRY( 18, 87)   DRY( 18, 88)   DRY( 18, 89)   DRY( 18, 90)   
    DRY( 18, 91)   DRY( 18, 92)   DRY( 18, 93)   DRY( 18, 94)   DRY( 18, 95)   
    DRY( 18, 96)   DRY( 18, 97)   DRY( 18, 98)   DRY( 18, 99)   DRY( 18,100)   
    DRY( 18,101)   DRY( 18,102)   DRY( 18,103)   DRY( 18,104)   DRY( 18,105)   
    DRY( 18,106)   DRY( 18,107)   DRY( 18,108)   DRY( 18,109)   DRY( 18,110)   
    DRY( 18,111)   DRY( 18,112)   DRY( 18,113)   DRY( 18,114)   DRY( 18,115)   
    DRY( 18,116)   DRY( 18,117)   DRY( 18,118)   DRY( 18,119)   DRY( 18,120)   
    DRY( 18,121)   DRY( 18,122)   DRY( 18,123)   DRY( 18,124)   DRY( 18,125)   
    DRY( 18,126)   DRY( 18,127)   DRY( 18,128)   DRY( 18,129)   DRY( 18,130)   
    DRY( 18,131)   DRY( 18,132)   DRY( 18,133)   DRY( 18,134)   DRY( 18,135)   
    DRY( 18,136)   DRY( 18,137)   DRY( 18,138)   DRY( 18,139)   DRY( 18,140)   
    DRY( 18,141)   DRY( 18,142)   DRY( 18,143)   DRY( 18,144)   DRY( 18,145)   
    DRY( 18,146)   DRY( 18,147)   DRY( 18,148)   DRY( 18,149)   DRY( 18,150)   
    DRY( 18,151)   DRY( 18,152)   DRY( 18,153)   DRY( 18,154)   DRY( 18,155)   
    DRY( 18,156)   DRY( 18,157)   DRY( 18,158)   DRY( 18,159)   DRY( 18,160)   
    DRY( 18,161)   DRY( 18,162)   DRY( 18,163)   DRY( 18,164)   DRY( 18,165)   
    DRY( 18,166)   DRY( 18,167)   DRY( 18,168)   DRY( 18,169)   DRY( 18,170)   
    DRY( 18,171)   DRY( 18,172)   DRY( 18,173)   DRY( 18,174)   DRY( 18,175)   
    DRY( 18,176)   DRY( 18,177)   DRY( 18,178)   DRY( 18,179)   DRY( 18,180)   
    DRY( 18,181)   DRY( 18,182)   DRY( 18,183)   DRY( 18,184)   DRY( 18,185)   
    DRY( 18,186)   DRY( 18,187)   DRY( 18,188)   DRY( 18,189)   DRY( 18,190)   
    DRY( 18,191)   DRY( 18,192)   DRY( 18,193)   DRY( 18,194)   DRY( 18,195)   
    DRY( 18,196)   DRY( 18,197)   DRY( 18,198)   DRY( 18,199)   DRY( 18,200)   
    DRY( 18,201)   DRY( 18,202)   DRY( 18,203)   DRY( 18,204)   DRY( 18,205)   
    DRY( 18,206)   DRY( 18,207)   DRY( 18,208)   DRY( 18,209)   DRY( 18,210)   
    DRY( 18,211)   DRY( 18,212)   DRY( 18,213)   DRY( 18,214)   DRY( 18,215)   
    DRY( 18,216)   DRY( 18,217)   DRY( 18,218)   DRY( 18,219)   DRY( 18,220)   
    DRY( 19, 44)   DRY( 19, 45)   DRY( 19, 46)   DRY( 19, 47)   DRY( 19, 48)   
    DRY( 19, 49)   DRY( 19, 50)   DRY( 19, 51)   DRY( 19, 52)   DRY( 19, 53)   
    DRY( 19, 54)   DRY( 19, 55)   DRY( 19, 56)   DRY( 19, 57)   DRY( 19, 58)   
    DRY( 19, 59)   DRY( 19, 60)   DRY( 19, 61)   DRY( 19, 62)   DRY( 19, 63)   
    DRY( 19, 64)   DRY( 19, 65)   DRY( 19, 66)   DRY( 19, 67)   DRY( 19, 68)   
    DRY( 19, 69)   DRY( 19, 70)   DRY( 19, 71)   DRY( 19, 72)   DRY( 19, 73)   
    DRY( 19, 74)   DRY( 19, 75)   DRY( 19, 76)   DRY( 19, 77)   DRY( 19, 78)   
    DRY( 19, 79)   DRY( 19, 80)   DRY( 19, 81)   DRY( 19, 82)   DRY( 19, 83)   
    DRY( 19, 84)   DRY( 19, 85)   DRY( 19, 86)   DRY( 19, 87)   DRY( 19, 88)   
    DRY( 19, 89)   DRY( 19, 90)   DRY( 19, 91)   DRY( 19, 92)   DRY( 19, 93)   
    DRY( 19, 94)   DRY( 19, 95)   DRY( 19, 96)   DRY( 19, 97)   DRY( 19, 98)   
    DRY( 19, 99)   DRY( 19,100)   DRY( 19,101)   DRY( 19,102)   DRY( 19,103)   
    DRY( 19,104)   DRY( 19,105)   DRY( 19,106)   DRY( 19,107)   DRY( 19,108)   
    DRY( 19,109)   DRY( 19,110)   DRY( 19,111)   DRY( 19,112)   DRY( 19,113)   
    DRY( 19,114)   DRY( 19,115)   DRY( 19,116)   DRY( 19,117)   DRY( 19,118)   
    DRY( 19,119)   DRY( 19,120)   DRY( 19,121)   DRY( 19,122)   DRY( 19,123)   
    DRY( 19,124)   DRY( 19,125)   DRY( 19,126)   DRY( 19,127)   DRY( 19,128)   
    DRY( 19,129)   DRY( 19,130)   DRY( 19,131)   DRY( 19,132)   DRY( 19,133)   
    DRY( 19,134)   DRY( 19,135)   DRY( 19,136)   DRY( 19,137)   DRY( 19,138)   
    DRY( 19,139)   DRY( 19,140)   DRY( 19,141)   DRY( 19,142)   DRY( 19,143)   
    DRY( 19,144)   DRY( 19,145)   DRY( 19,146)   DRY( 19,147)   DRY( 19,148)   
    DRY( 19,149)   DRY( 19,150)   DRY( 19,151)   DRY( 19,152)   DRY( 19,153)   
    DRY( 19,154)   DRY( 19,155)   DRY( 19,156)   DRY( 19,157)   DRY( 19,158)   
    DRY( 19,159)   DRY( 19,160)   DRY( 19,161)   DRY( 19,162)   DRY( 19,163)   
    DRY( 19,164)   DRY( 19,165)   DRY( 19,166)   DRY( 19,167)   DRY( 19,168)   
    DRY( 19,169)   DRY( 19,170)   DRY( 19,171)   DRY( 19,172)   DRY( 19,173)   
    DRY( 19,174)   DRY( 19,175)   DRY( 19,176)   DRY( 19,177)   DRY( 19,178)   
    DRY( 19,179)   DRY( 19,180)   DRY( 19,181)   DRY( 19,182)   DRY( 19,183)   
    DRY( 19,184)   DRY( 19,185)   DRY( 19,186)   DRY( 19,187)   DRY( 19,188)   
    DRY( 19,189)   DRY( 19,190)   DRY( 19,191)   DRY( 19,192)   DRY( 19,193)   
    DRY( 19,194)   DRY( 19,195)   DRY( 19,196)   DRY( 19,197)   DRY( 19,198)   
    DRY( 19,199)   DRY( 19,200)   DRY( 19,201)   DRY( 19,202)   DRY( 19,207)   
    DRY( 19,208)   DRY( 19,209)   DRY( 19,210)   DRY( 19,211)   DRY( 19,212)   
    DRY( 19,213)   DRY( 19,214)   DRY( 19,215)   DRY( 19,216)   DRY( 19,217)   
    DRY( 19,218)   DRY( 19,219)   DRY( 19,220)   DRY( 20,102)   DRY( 20,103)   
    DRY( 20,104)   DRY( 20,105)   DRY( 20,106)   DRY( 20,107)   DRY( 20,108)   
    DRY( 20,109)   DRY( 20,110)   DRY( 20,111)   DRY( 20,112)   DRY( 20,113)   
    DRY( 20,114)   DRY( 20,115)   DRY( 20,116)   DRY( 20,117)   DRY( 20,118)   
    DRY( 20,119)   DRY( 20,120)   DRY( 20,121)   DRY( 20,122)   DRY( 20,123)   
    DRY( 20,124)   DRY( 20,125)   DRY( 20,126)   DRY( 20,127)   DRY( 20,128)   
    DRY( 20,129)   DRY( 20,130)   DRY( 20,131)   DRY( 20,132)   DRY( 20,133)   
    DRY( 20,134)   DRY( 20,135)   DRY( 20,136)   DRY( 20,137)   DRY( 20,138)   
    DRY( 20,139)   DRY( 20,140)   DRY( 20,141)   DRY( 20,142)   DRY( 20,143)   
    DRY( 20,144)   DRY( 20,145)   DRY( 20,150)   DRY( 20,151)   DRY( 20,152)   
    DRY( 20,153)   DRY( 20,154)   DRY( 20,155)   DRY( 20,156)   DRY( 20,157)   
    DRY( 20,158)   DRY( 20,159)   DRY( 20,160)   DRY( 20,161)   DRY( 20,162)   
    DRY( 20,163)   DRY( 20,164)   DRY( 20,165)   DRY( 20,166)   DRY( 20,167)   
    DRY( 20,168)   DRY( 20,170)   DRY( 20,171)   DRY( 20,172)   DRY( 20,173)   
    DRY( 20,174)   DRY( 20,175)   DRY( 20,176)   DRY( 20,177)   DRY( 20,178)   
    DRY( 20,179)   DRY( 20,180)   DRY( 20,181)   DRY( 20,182)   DRY( 20,183)   
    DRY( 20,184)   DRY( 20,185)   DRY( 20,186)   DRY( 20,187)   DRY( 20,188)   
    DRY( 20,189)   DRY( 20,190)   DRY( 20,191)   DRY( 20,192)   DRY( 20,193)   
    DRY( 20,194)   DRY( 20,195)   DRY( 20,196)   DRY( 20,197)   DRY( 20,198)   
    DRY( 20,199)   DRY( 20,200)   DRY( 20,201)   DRY( 20,209)   DRY( 20,210)   
    DRY( 20,211)   DRY( 20,212)   DRY( 20,213)   DRY( 20,214)   DRY( 20,215)   
    DRY( 20,216)   DRY( 20,217)   DRY( 20,218)   DRY( 20,219)   DRY( 20,220)   
    DRY( 21,159)   DRY( 21,192)   DRY( 21,193)   DRY( 21,194)   DRY( 21,195)   
    DRY( 21,196)   DRY( 21,197)   DRY( 21,198)   DRY( 21,211)   DRY( 21,212)   
    DRY( 21,213)   DRY( 21,214)   DRY( 21,215)   DRY( 21,216)   DRY( 21,217)   
    DRY( 21,218)   DRY( 21,219)   DRY( 21,220)   DRY( 22,213)   DRY( 22,214)   
    DRY( 22,215)   DRY( 22,216)   DRY( 22,217)   DRY( 22,218)   DRY( 22,219)   
    DRY( 23,215)   DRY( 23,216)   DRY( 23,217)   DRY( 23,218)   

 CELL CONVERSIONS FOR ITER.=  3  LAYER= 10  STEP=  1  PERIOD=   1   (ROW,COL)
    DRY( 15,  1)   DRY( 15,  2)   DRY( 15,  3)   DRY( 16,  1)   DRY( 16,  2)   
    DRY( 16,  3)   DRY( 16,  4)   DRY( 16,  5)   DRY( 16,  6)   DRY( 16,  7)   
    DRY( 16,  8)   DRY( 16,  9)   DRY( 16, 10)   DRY( 16, 11)   DRY( 16, 12)   
    DRY( 16, 13)   DRY( 16, 14)   DRY( 16, 15)   DRY( 16, 16)   DRY( 16, 17)   
    DRY( 16, 18)   DRY( 16, 19)   DRY( 16, 20)   DRY( 16, 21)   DRY( 16, 22)   
    DRY( 16, 23)   DRY( 16, 24)   DRY( 16, 25)   DRY( 16, 26)   DRY( 16, 27)   
    DRY( 16, 28)   DRY( 16, 29)   DRY( 16, 30)   DRY( 16, 31)   DRY( 16, 32)   
    DRY( 16, 33)   DRY( 16, 34)   DRY( 16, 35)   DRY( 16, 36)   DRY( 16, 37)   
    DRY( 16, 38)   DRY( 16, 39)   DRY( 16, 40)   DRY( 16, 41)   DRY( 16, 42)   
    DRY( 16, 43)   DRY( 16, 44)   DRY( 16, 45)   DRY( 16, 46)   DRY( 16, 47)   
    DRY( 16, 48)   DRY( 16, 49)   DRY( 16, 50)   DRY( 16, 51)   DRY( 16, 52)   
    DRY( 16, 53)   DRY( 16, 54)   DRY( 16, 55)   DRY( 16, 56)   DRY( 16, 57)   
    DRY( 16, 58)   DRY( 16, 59)   DRY( 16, 60)   DRY( 16, 61)   DRY( 16, 62)   
    DRY( 16, 63)   DRY( 16, 64)   DRY( 16, 65)   DRY( 16, 66)   DRY( 16, 67)   
    DRY( 16, 68)   DRY( 16, 69)   DRY( 16, 70)   DRY( 16, 71)   DRY( 16, 72)   
    DRY( 16, 73)   DRY( 16, 74)   DRY( 16, 75)   DRY( 16, 76)   DRY( 16, 77)   
    DRY( 16, 78)   DRY( 16, 79)   DRY( 16, 80)   DRY( 16, 81)   DRY( 16, 82)   
    DRY( 16, 83)   DRY( 16, 84)   DRY( 16, 85)   DRY( 16, 86)   DRY( 16, 87)   
    DRY( 16, 88)   DRY( 16, 89)   DRY( 16, 90)   DRY( 16, 91)   DRY( 16, 92)   
    DRY( 16, 93)   DRY( 16, 94)   DRY( 16, 95)   DRY( 16, 96)   DRY( 16, 97)   
    DRY( 16, 98)   DRY( 16, 99)   DRY( 16,100)   DRY( 16,101)   DRY( 16,102)   
    DRY( 16,103)   DRY( 16,104)   DRY( 16,105)   DRY( 16,106)   DRY( 16,107)   
    DRY( 16,108)   DRY( 16,109)   DRY( 16,110)   DRY( 16,111)   DRY( 16,112)   
    DRY( 16,113)   DRY( 16,114)   DRY( 16,115)   DRY( 16,116)   DRY( 16,117)   
    DRY( 16,118)   DRY( 16,119)   DRY( 16,120)   DRY( 16,121)   DRY( 16,122)   
    DRY( 16,123)   DRY( 16,124)   DRY( 16,125)   DRY( 16,126)   DRY( 16,127)   
    DRY( 16,128)   DRY( 16,129)   DRY( 16,130)   DRY( 16,131)   DRY( 16,132)   
    DRY( 16,133)   DRY( 16,134)   DRY( 16,135)   DRY( 16,136)   DRY( 16,137)   
    DRY( 16,138)   DRY( 16,139)   DRY( 16,140)   DRY( 16,141)   DRY( 16,142)   
    DRY( 16,143)   DRY( 16,144)   DRY( 16,145)   DRY( 16,146)   DRY( 16,147)   
    DRY( 16,148)   DRY( 16,149)   DRY( 16,150)   DRY( 16,151)   DRY( 16,152)   
    DRY( 16,153)   DRY( 16,154)   DRY( 16,155)   DRY( 16,156)   DRY( 16,157)   
    DRY( 16,158)   DRY( 16,159)   DRY( 16,160)   DRY( 16,161)   DRY( 16,162)   
    DRY( 16,163)   DRY( 16,164)   DRY( 16,165)   DRY( 16,166)   DRY( 16,167)   
    DRY( 16,168)   DRY( 16,169)   DRY( 16,170)   DRY( 16,171)   DRY( 16,172)   
    DRY( 16,173)   DRY( 16,174)   DRY( 16,175)   DRY( 16,176)   DRY( 16,177)   
    DRY( 16,178)   DRY( 16,179)   DRY( 16,180)   DRY( 16,181)   DRY( 16,182)   
    DRY( 16,183)   DRY( 16,184)   DRY( 16,185)   DRY( 16,186)   DRY( 16,187)   
    DRY( 16,188)   DRY( 16,189)   DRY( 16,190)   DRY( 16,191)   DRY( 16,192)   
    DRY( 16,193)   DRY( 16,194)   DRY( 16,195)   DRY( 16,196)   DRY( 16,197)   
    DRY( 16,198)   DRY( 16,199)   DRY( 16,200)   DRY( 16,201)   DRY( 16,202)   
    DRY( 16,203)   DRY( 16,204)   DRY( 16,205)   DRY( 16,206)   DRY( 16,207)   
    DRY( 16,208)   DRY( 16,209)   DRY( 16,210)   DRY( 16,211)   DRY( 16,212)   
    DRY( 16,213)   DRY( 16,214)   DRY( 16,215)   DRY( 17,  1)   DRY( 17,  2)   
    DRY( 17,  3)   DRY( 17,  4)   DRY( 17,  5)   DRY( 17,  6)   DRY( 17,  7)   
    DRY( 17,  8)   DRY( 17,  9)   DRY( 17, 10)   DRY( 17, 11)   DRY( 17, 12)   
    DRY( 17, 13)   DRY( 17, 14)   DRY( 17, 15)   DRY( 17, 16)   DRY( 17, 17)   
    DRY( 17, 18)   DRY( 17, 19)   DRY( 17, 20)   DRY( 17, 21)   DRY( 17, 22)   
    DRY( 17, 23)   DRY( 17, 24)   DRY( 17, 25)   DRY( 17, 26)   DRY( 17, 27)   
    DRY( 17, 28)   DRY( 17, 29)   DRY( 17, 30)   DRY( 17, 31)   DRY( 17, 32)   
    DRY( 17, 33)   DRY( 17, 34)   DRY( 17, 35)   DRY( 17, 36)   DRY( 17, 37)   
    DRY( 17, 38)   DRY( 17, 39)   DRY( 17, 40)   DRY( 17, 41)   DRY( 17, 42)   
    DRY( 17, 43)   DRY( 17, 44)   DRY( 17, 45)   DRY( 17, 46)   DRY( 17, 47)   
    DRY( 17, 48)   DRY( 17, 49)   DRY( 17, 50)   DRY( 17, 51)   DRY( 17, 52)   
    DRY( 17, 53)   DRY( 17, 54)   DRY( 17, 55)   DRY( 17, 56)   DRY( 17, 57)   
    DRY( 17, 58)   DRY( 17, 59)   DRY( 17, 60)   DRY( 17, 61)   DRY( 17, 62)   
    DRY( 17, 63)   DRY( 17, 64)   DRY( 17, 65)   DRY( 17, 66)   DRY( 17, 67)   
    DRY( 17, 68)   DRY( 17, 69)   DRY( 17, 70)   DRY( 17, 71)   DRY( 17, 72)   
    DRY( 17, 73)   DRY( 17, 74)   DRY( 17, 75)   DRY( 17, 76)   DRY( 17, 77)   
    DRY( 17, 78)   DRY( 17, 79)   DRY( 17, 80)   DRY( 17, 81)   DRY( 17, 82)   
    DRY( 17, 83)   DRY( 17, 84)   DRY( 17, 85)   DRY( 17, 86)   DRY( 17, 87)   
    DRY( 17, 88)   DRY( 17, 89)   DRY( 17, 90)   DRY( 17, 91)   DRY( 17, 92)   
    DRY( 17, 93)   DRY( 17, 94)   DRY( 17, 95)   DRY( 17, 96)   DRY( 17, 97)   
    DRY( 17, 98)   DRY( 17, 99)   DRY( 17,100)   DRY( 17,101)   DRY( 17,102)   
    DRY( 17,103)   DRY( 17,104)   DRY( 17,105)   DRY( 17,106)   DRY( 17,107)   
    DRY( 17,108)   DRY( 17,109)   DRY( 17,110)   DRY( 17,111)   DRY( 17,112)   
    DRY( 17,113)   DRY( 17,114)   DRY( 17,115)   DRY( 17,116)   DRY( 17,117)   
    DRY( 17,118)   DRY( 17,119)   DRY( 17,120)   DRY( 17,121)   DRY( 17,122)   
    DRY( 17,123)   DRY( 17,124)   DRY( 17,125)   DRY( 17,126)   DRY( 17,127)   
    DRY( 17,128)   DRY( 17,129)   DRY( 17,130)   DRY( 17,131)   DRY( 17,132)   
    DRY( 17,133)   DRY( 17,134)   DRY( 17,135)   DRY( 17,136)   DRY( 17,137)   
    DRY( 17,138)   DRY( 17,139)   DRY( 17,140)   DRY( 17,141)   DRY( 17,142)   
    DRY( 17,143)   DRY( 17,144)   DRY( 17,145)   DRY( 17,146)   DRY( 17,147)   
    DRY( 17,148)   DRY( 17,149)   DRY( 17,150)   DRY( 17,151)   DRY( 17,152)   
    DRY( 17,153)   DRY( 17,154)   DRY( 17,155)   DRY( 17,156)   DRY( 17,157)   
    DRY( 17,158)   DRY( 17,159)   DRY( 17,160)   DRY( 17,161)   DRY( 17,162)   
    DRY( 17,163)   DRY( 17,164)   DRY( 17,165)   DRY( 17,166)   DRY( 17,167)   
    DRY( 17,168)   DRY( 17,169)   DRY( 17,170)   DRY( 17,171)   DRY( 17,172)   
    DRY( 17,173)   DRY( 17,174)   DRY( 17,175)   DRY( 17,176)   DRY( 17,177)   
    DRY( 17,178)   DRY( 17,179)   DRY( 17,180)   DRY( 17,181)   DRY( 17,182)   
    DRY( 17,183)   DRY( 17,184)   DRY( 17,185)   DRY( 17,186)   DRY( 17,187)   
    DRY( 17,188)   DRY( 17,189)   DRY( 17,190)   DRY( 17,191)   DRY( 17,192)   
    DRY( 17,193)   DRY( 17,194)   DRY( 17,195)   DRY( 17,196)   DRY( 17,197)   
    DRY( 17,198)   DRY( 17,199)   DRY( 17,200)   DRY( 17,201)   DRY( 17,202)   
    DRY( 17,203)   DRY( 17,204)   DRY( 17,205)   DRY( 17,206)   DRY( 17,207)   
    DRY( 17,208)   DRY( 17,209)   DRY( 17,210)   DRY( 17,211)   DRY( 17,212)   
    DRY( 17,213)   DRY( 17,214)   DRY( 17,215)   DRY( 17,216)   DRY( 17,217)   
    DRY( 17,218)   DRY( 17,219)   DRY( 17,220)   DRY( 18,  1)   DRY( 18,  2)   
    DRY( 18,  3)   DRY( 18,  4)   DRY( 18,  5)   DRY( 18,  6)   DRY( 18,  7)   
    DRY( 18,  8)   DRY( 18,  9)   DRY( 18, 10)   DRY( 18, 11)   DRY( 18, 12)   
    DRY( 18, 13)   DRY( 18, 14)   DRY( 18, 15)   DRY( 18, 16)   DRY( 18, 17)   
    DRY( 18, 18)   DRY( 18, 19)   DRY( 18, 20)   DRY( 18, 21)   DRY( 18, 22)   
    DRY( 18, 23)   DRY( 18, 24)   DRY( 18, 25)   DRY( 18, 26)   DRY( 18, 27)   
    DRY( 18, 28)   DRY( 18, 29)   DRY( 18, 30)   DRY( 18, 31)   DRY( 18, 32)   
    DRY( 18, 33)   DRY( 18, 34)   DRY( 18, 35)   DRY( 18, 36)   DRY( 18, 37)   
    DRY( 18, 38)   DRY( 18, 39)   DRY( 18, 40)   DRY( 18, 41)   DRY( 18, 42)   
    DRY( 18, 43)   DRY( 18, 44)   DRY( 18, 45)   DRY( 18, 46)   DRY( 18, 47)   
    DRY( 18, 48)   DRY( 18, 49)   DRY( 18, 50)   DRY( 18, 51)   DRY( 18, 52)   
    DRY( 18, 53)   DRY( 18, 54)   DRY( 18, 55)   DRY( 18, 56)   DRY( 18, 57)   
    DRY( 18, 58)   DRY( 18, 59)   DRY( 18, 60)   DRY( 18, 61)   DRY( 18, 62)   
    DRY( 18, 63)   DRY( 18, 64)   DRY( 18, 65)   DRY( 18, 66)   DRY( 18, 67)   
    DRY( 18, 68)   DRY( 18, 69)   DRY( 18, 70)   DRY( 18, 71)   DRY( 18, 72)   
    DRY( 18, 73)   DRY( 18, 74)   DRY( 18, 75)   DRY( 18, 76)   DRY( 18, 77)   
    DRY( 18, 78)   DRY( 18, 79)   DRY( 18, 80)   DRY( 18, 81)   DRY( 18, 82)   
    DRY( 18, 83)   DRY( 18, 84)   DRY( 18, 85)   DRY( 18, 86)   DRY( 18, 87)   
    DRY( 18, 88)   DRY( 18, 89)   DRY( 18, 90)   DRY( 18, 91)   DRY( 18, 92)   
    DRY( 18, 93)   DRY( 18, 94)   DRY( 18, 95)   DRY( 18, 96)   DRY( 18, 97)   
    DRY( 18, 98)   DRY( 18, 99)   DRY( 18,100)   DRY( 18,101)   DRY( 18,102)   
    DRY( 18,103)   DRY( 18,104)   DRY( 18,105)   DRY( 18,106)   DRY( 18,107)   
    DRY( 18,108)   DRY( 18,109)   DRY( 18,110)   DRY( 18,111)   DRY( 18,112)   
    DRY( 18,113)   DRY( 18,114)   DRY( 18,115)   DRY( 18,116)   DRY( 18,117)   
    DRY( 18,118)   DRY( 18,119)   DRY( 18,120)   DRY( 18,121)   DRY( 18,122)   
    DRY( 18,123)   DRY( 18,124)   DRY( 18,125)   DRY( 18,126)   DRY( 18,127)   
    DRY( 18,128)   DRY( 18,129)   DRY( 18,130)   DRY( 18,131)   DRY( 18,132)   
    DRY( 18,133)   DRY( 18,134)   DRY( 18,135)   DRY( 18,136)   DRY( 18,137)   
    DRY( 18,138)   DRY( 18,139)   DRY( 18,140)   DRY( 18,141)   DRY( 18,142)   
    DRY( 18,143)   DRY( 18,144)   DRY( 18,145)   DRY( 18,146)   DRY( 18,147)   
    DRY( 18,148)   DRY( 18,149)   DRY( 18,150)   DRY( 18,151)   DRY( 18,152)   
    DRY( 18,153)   DRY( 18,154)   DRY( 18,155)   DRY( 18,156)   DRY( 18,157)   
    DRY( 18,158)   DRY( 18,159)   DRY( 18,160)   DRY( 18,161)   DRY( 18,162)   
    DRY( 18,163)   DRY( 18,164)   DRY( 18,165)   DRY( 18,166)   DRY( 18,167)   
    DRY( 18,168)   DRY( 18,169)   DRY( 18,170)   DRY( 18,171)   DRY( 18,172)   
    DRY( 18,173)   DRY( 18,174)   DRY( 18,175)   DRY( 18,176)   DRY( 18,177)   
    DRY( 18,178)   DRY( 18,179)   DRY( 18,180)   DRY( 18,181)   DRY( 18,182)   
    DRY( 18,183)   DRY( 18,184)   DRY( 18,185)   DRY( 18,186)   DRY( 18,187)   
    DRY( 18,188)   DRY( 18,189)   DRY( 18,190)   DRY( 18,191)   DRY( 18,192)   
    DRY( 18,193)   DRY( 18,194)   DRY( 18,195)   DRY( 18,196)   DRY( 18,197)   
    DRY( 18,198)   DRY( 18,199)   DRY( 18,200)   DRY( 18,201)   DRY( 18,202)   
    DRY( 18,203)   DRY( 18,204)   DRY( 18,205)   DRY( 18,206)   DRY( 18,207)   
    DRY( 18,208)   DRY( 18,209)   DRY( 18,210)   DRY( 18,211)   DRY( 18,212)   
    DRY( 18,213)   DRY( 18,214)   DRY( 18,215)   DRY( 18,216)   DRY( 18,217)   
    DRY( 18,218)   DRY( 18,219)   DRY( 18,220)   DRY( 19,  2)   DRY( 19,  3)   
    DRY( 19,  4)   DRY( 19,  5)   DRY( 19,  6)   DRY( 19,  7)   DRY( 19,  8)   
    DRY( 19,  9)   DRY( 19, 10)   DRY( 19, 11)   DRY( 19, 12)   DRY( 19, 13)   
    DRY( 19, 14)   DRY( 19, 15)   DRY( 19, 16)   DRY( 19, 17)   DRY( 19, 18)   
    DRY( 19, 19)   DRY( 19, 20)   DRY( 19, 21)   DRY( 19, 22)   DRY( 19, 23)   
    DRY( 19, 24)   DRY( 19, 25)   DRY( 19, 26)   DRY( 19, 27)   DRY( 19, 28)   
    DRY( 19, 29)   DRY( 19, 30)   DRY( 19, 31)   DRY( 19, 32)   DRY( 19, 33)   
    DRY( 19, 34)   DRY( 19, 35)   DRY( 19, 36)   DRY( 19, 37)   DRY( 19, 38)   
    DRY( 19, 39)   DRY( 19, 40)   DRY( 19, 41)   DRY( 19, 42)   DRY( 19, 43)   
    DRY( 19, 44)   DRY( 19, 45)   DRY( 19, 46)   DRY( 19, 47)   DRY( 19, 48)   
    DRY( 19, 49)   DRY( 19, 50)   DRY( 19, 51)   DRY( 19, 52)   DRY( 19, 53)   
    DRY( 19, 54)   DRY( 19, 55)   DRY( 19, 56)   DRY( 19, 57)   DRY( 19, 58)   
    DRY( 19, 59)   DRY( 19, 60)   DRY( 19, 61)   DRY( 19, 62)   DRY( 19, 63)   
    DRY( 19, 64)   DRY( 19, 65)   DRY( 19, 66)   DRY( 19, 67)   DRY( 19, 68)   
    DRY( 19, 69)   DRY( 19, 70)   DRY( 19, 71)   DRY( 19, 72)   DRY( 19, 73)   
    DRY( 19, 74)   DRY( 19, 75)   DRY( 19, 76)   DRY( 19, 77)   DRY( 19, 78)   
    DRY( 19, 79)   DRY( 19, 80)   DRY( 19, 81)   DRY( 19, 82)   DRY( 19, 83)   
    DRY( 19, 84)   DRY( 19, 85)   DRY( 19, 86)   DRY( 19, 87)   DRY( 19, 88)   
    DRY( 19, 89)   DRY( 19, 90)   DRY( 19, 91)   DRY( 19, 92)   DRY( 19, 93)   
    DRY( 19, 94)   DRY( 19, 95)   DRY( 19, 96)   DRY( 19, 97)   DRY( 19, 98)   
    DRY( 19, 99)   DRY( 19,100)   DRY( 19,101)   DRY( 19,102)   DRY( 19,103)   
    DRY( 19,104)   DRY( 19,105)   DRY( 19,106)   DRY( 19,107)   DRY( 19,108)   
    DRY( 19,109)   DRY( 19,110)   DRY( 19,111)   DRY( 19,112)   DRY( 19,113)   
    DRY( 19,114)   DRY( 19,115)   DRY( 19,116)   DRY( 19,117)   DRY( 19,118)   
    DRY( 19,119)   DRY( 19,120)   DRY( 19,121)   DRY( 19,122)   DRY( 19,123)   
    DRY( 19,124)   DRY( 19,125)   DRY( 19,126)   DRY( 19,127)   DRY( 19,128)   
    DRY( 19,129)   DRY( 19,130)   DRY( 19,131)   DRY( 19,132)   DRY( 19,133)   
    DRY( 19,134)   DRY( 19,135)   DRY( 19,136)   DRY( 19,137)   DRY( 19,138)   
    DRY( 19,139)   DRY( 19,140)   DRY( 19,141)   DRY( 19,142)   DRY( 19,143)   
    DRY( 19,144)   DRY( 19,145)   DRY( 19,146)   DRY( 19,147)   DRY( 19,148)   
    DRY( 19,149)   DRY( 19,150)   DRY( 19,151)   DRY( 19,152)   DRY( 19,153)   
    DRY( 19,154)   DRY( 19,155)   DRY( 19,156)   DRY( 19,157)   DRY( 19,158)   
    DRY( 19,159)   DRY( 19,160)   DRY( 19,161)   DRY( 19,162)   DRY( 19,163)   
    DRY( 19,164)   DRY( 19,165)   DRY( 19,166)   DRY( 19,167)   DRY( 19,168)   
    DRY( 19,169)   DRY( 19,170)   DRY( 19,171)   DRY( 19,172)   DRY( 19,173)   
    DRY( 19,174)   DRY( 19,175)   DRY( 19,176)   DRY( 19,177)   DRY( 19,178)   
    DRY( 19,179)   DRY( 19,180)   DRY( 19,181)   DRY( 19,182)   DRY( 19,183)   
    DRY( 19,184)   DRY( 19,185)   DRY( 19,186)   DRY( 19,187)   DRY( 19,188)   
    DRY( 19,189)   DRY( 19,190)   DRY( 19,191)   DRY( 19,192)   DRY( 19,193)   
    DRY( 19,194)   DRY( 19,195)   DRY( 19,196)   DRY( 19,197)   DRY( 19,198)   
    DRY( 19,199)   DRY( 19,200)   DRY( 19,201)   DRY( 19,202)   DRY( 19,203)   
    DRY( 19,204)   DRY( 19,205)   DRY( 19,206)   DRY( 19,207)   DRY( 19,208)   
    DRY( 19,209)   DRY( 19,210)   DRY( 19,211)   DRY( 19,212)   DRY( 19,213)   
    DRY( 19,214)   DRY( 19,215)   DRY( 19,216)   DRY( 19,217)   DRY( 19,218)   
    DRY( 19,219)   DRY( 19,220)   DRY( 20,  4)   DRY( 20,  5)   DRY( 20,  6)   
    DRY( 20,  7)   DRY( 20,  8)   DRY( 20,  9)   DRY( 20, 10)   DRY( 20, 11)   
    DRY( 20, 12)   DRY( 20, 13)   DRY( 20, 14)   DRY( 20, 15)   DRY( 20, 16)   
    DRY( 20, 17)   DRY( 20, 18)   DRY( 20, 19)   DRY( 20, 20)   DRY( 20, 21)   
    DRY( 20, 22)   DRY( 20, 23)   DRY( 20, 24)   DRY( 20, 25)   DRY( 20, 26)   
    DRY( 20, 27)   DRY( 20, 28)   DRY( 20, 29)   DRY( 20, 30)   DRY( 20, 31)   
    DRY( 20, 32)   DRY( 20, 33)   DRY( 20, 34)   DRY( 20, 35)   DRY( 20, 36)   
    DRY( 20, 37)   DRY( 20, 38)   DRY( 20, 39)   DRY( 20, 40)   DRY( 20, 41)   
    DRY( 20, 42)   DRY( 20, 43)   DRY( 20, 44)   DRY( 20, 45)   DRY( 20, 46)   
    DRY( 20, 47)   DRY( 20, 48)   DRY( 20, 49)   DRY( 20, 50)   DRY( 20, 51)   
    DRY( 20, 52)   DRY( 20, 53)   DRY( 20, 54)   DRY( 20, 55)   DRY( 20, 56)   
    DRY( 20, 57)   DRY( 20, 58)   DRY( 20, 59)   DRY( 20, 60)   DRY( 20, 61)   
    DRY( 20, 62)   DRY( 20, 63)   DRY( 20, 64)   DRY( 20, 65)   DRY( 20, 66)   
    DRY( 20, 67)   DRY( 20, 68)   DRY( 20, 69)   DRY( 20, 70)   DRY( 20, 71)   
    DRY( 20, 72)   DRY( 20, 73)   DRY( 20, 74)   DRY( 20, 75)   DRY( 20, 76)   
    DRY( 20, 77)   DRY( 20, 78)   DRY( 20, 79)   DRY( 20, 80)   DRY( 20, 81)   
    DRY( 20, 82)   DRY( 20, 83)   DRY( 20, 84)   DRY( 20, 85)   DRY( 20, 86)   
    DRY( 20, 87)   DRY( 20, 88)   DRY( 20, 89)   DRY( 20, 90)   DRY( 20, 91)   
    DRY( 20, 92)   DRY( 20, 93)   DRY( 20, 94)   DRY( 20, 95)   DRY( 20, 96)   
    DRY( 20, 97)   DRY( 20, 98)   DRY( 20, 99)   DRY( 20,100)   DRY( 20,101)   
    DRY( 20,102)   DRY( 20,103)   DRY( 20,104)   DRY( 20,105)   DRY( 20,106)   
    DRY( 20,107)   DRY( 20,108)   DRY( 20,109)   DRY( 20,110)   DRY( 20,111)   
    DRY( 20,112)   DRY( 20,113)   DRY( 20,114)   DRY( 20,115)   DRY( 20,116)   
    DRY( 20,117)   DRY( 20,118)   DRY( 20,119)   DRY( 20,120)   DRY( 20,121)   
    DRY( 20,122)   DRY( 20,123)   DRY( 20,124)   DRY( 20,125)   DRY( 20,126)   
    DRY( 20,127)   DRY( 20,128)   DRY( 20,129)   DRY( 20,130)   DRY( 20,131)   
    DRY( 20,132)   DRY( 20,133)   DRY( 20,134)   DRY( 20,135)   DRY( 20,136)   
    DRY( 20,137)   DRY( 20,138)   DRY( 20,139)   DRY( 20,140)   DRY( 20,141)   
    DRY( 20,142)   DRY( 20,143)   DRY( 20,144)   DRY( 20,145)   DRY( 20,146)   
    DRY( 20,147)   DRY( 20,148)   DRY( 20,149)   DRY( 20,150)   DRY( 20,151)   
    DRY( 20,152)   DRY( 20,153)   DRY( 20,154)   DRY( 20,155)   DRY( 20,156)   
    DRY( 20,157)   DRY( 20,158)   DRY( 20,159)   DRY( 20,160)   DRY( 20,161)   
    DRY( 20,162)   DRY( 20,163)   DRY( 20,164)   DRY( 20,165)   DRY( 20,166)   
    DRY( 20,167)   DRY( 20,168)   DRY( 20,169)   DRY( 20,170)   DRY( 20,171)   
    DRY( 20,172)   DRY( 20,173)   DRY( 20,174)   DRY( 20,175)   DRY( 20,176)   
    DRY( 20,177)   DRY( 20,178)   DRY( 20,179)   DRY( 20,180)   DRY( 20,181)   
    DRY( 20,182)   DRY( 20,183)   DRY( 20,184)   DRY( 20,185)   DRY( 20,186)   
    DRY( 20,187)   DRY( 20,188)   DRY( 20,189)   DRY( 20,190)   DRY( 20,191)   
    DRY( 20,192)   DRY( 20,193)   DRY( 20,194)   DRY( 20,195)   DRY( 20,196)   
    DRY( 20,197)   DRY( 20,198)   DRY( 20,199)   DRY( 20,200)   DRY( 20,201)   
    DRY( 20,202)   DRY( 20,203)   DRY( 20,204)   DRY( 20,205)   DRY( 20,206)   
    DRY( 20,207)   DRY( 20,208)   DRY( 20,209)   DRY( 20,210)   DRY( 20,211)   
    DRY( 20,212)   DRY( 20,213)   DRY( 20,214)   DRY( 20,215)   DRY( 20,216)   
    DRY( 20,217)   DRY( 20,218)   DRY( 20,219)   DRY( 20,220)   DRY( 21, 14)   
    DRY( 21, 15)   DRY( 21, 16)   DRY( 21, 17)   DRY( 21, 18)   DRY( 21, 19)   
    DRY( 21, 20)   DRY( 21, 21)   DRY( 21, 22)   DRY( 21, 23)   DRY( 21, 24)   
    DRY( 21, 25)   DRY( 21, 26)   DRY( 21, 27)   DRY( 21, 28)   DRY( 21, 29)   
    DRY( 21, 30)   DRY( 21, 31)   DRY( 21, 32)   DRY( 21, 33)   DRY( 21, 34)   
    DRY( 21, 35)   DRY( 21, 36)   DRY( 21, 37)   DRY( 21, 38)   DRY( 21, 39)   
    DRY( 21, 40)   DRY( 21, 41)   DRY( 21, 42)   DRY( 21, 43)   DRY( 21, 44)   
    DRY( 21, 45)   DRY( 21, 46)   DRY( 21, 47)   DRY( 21, 48)   DRY( 21, 49)   
    DRY( 21, 50)   DRY( 21, 51)   DRY( 21, 52)   DRY( 21, 53)   DRY( 21, 54)   
    DRY( 21, 55)   DRY( 21, 56)   DRY( 21, 57)   DRY( 21, 58)   DRY( 21, 59)   
    DRY( 21, 60)   DRY( 21, 61)   DRY( 21, 62)   DRY( 21, 63)   DRY( 21, 64)   
    DRY( 21, 65)   DRY( 21, 66)   DRY( 21, 67)   DRY( 21, 68)   DRY( 21, 69)   
    DRY( 21, 70)   DRY( 21, 71)   DRY( 21, 72)   DRY( 21, 73)   DRY( 21, 74)   
    DRY( 21, 75)   DRY( 21, 76)   DRY( 21, 77)   DRY( 21, 78)   DRY( 21, 79)   
    DRY( 21, 80)   DRY( 21, 81)   DRY( 21, 82)   DRY( 21, 83)   DRY( 21, 84)   
    DRY( 21, 85)   DRY( 21, 86)   DRY( 21, 87)   DRY( 21, 88)   DRY( 21, 89)   
    DRY( 21, 90)   DRY( 21, 91)   DRY( 21, 92)   DRY( 21, 93)   DRY( 21, 94)   
    DRY( 21, 95)   DRY( 21, 96)   DRY( 21, 97)   DRY( 21, 98)   DRY( 21, 99)   
    DRY( 21,100)   DRY( 21,101)   DRY( 21,102)   DRY( 21,103)   DRY( 21,104)   
    DRY( 21,105)   DRY( 21,106)   DRY( 21,107)   DRY( 21,108)   DRY( 21,109)   
    DRY( 21,110)   DRY( 21,111)   DRY( 21,112)   DRY( 21,113)   DRY( 21,114)   
    DRY( 21,115)   DRY( 21,116)   DRY( 21,117)   DRY( 21,118)   DRY( 21,119)   
    DRY( 21,120)   DRY( 21,121)   DRY( 21,122)   DRY( 21,123)   DRY( 21,124)   
    DRY( 21,125)   DRY( 21,126)   DRY( 21,127)   DRY( 21,128)   DRY( 21,129)   
    DRY( 21,130)   DRY( 21,131)   DRY( 21,132)   DRY( 21,133)   DRY( 21,134)   
    DRY( 21,135)   DRY( 21,136)   DRY( 21,137)   DRY( 21,138)   DRY( 21,139)   
    DRY( 21,140)   DRY( 21,141)   DRY( 21,142)   DRY( 21,143)   DRY( 21,144)   
    DRY( 21,145)   DRY( 21,146)   DRY( 21,147)   DRY( 21,148)   DRY( 21,149)   
    DRY( 21,150)   DRY( 21,151)   DRY( 21,152)   DRY( 21,153)   DRY( 21,154)   
    DRY( 21,155)   DRY( 21,156)   DRY( 21,157)   DRY( 21,158)   DRY( 21,159)   
    DRY( 21,160)   DRY( 21,161)   DRY( 21,162)   DRY( 21,163)   DRY( 21,164)   
    DRY( 21,165)   DRY( 21,166)   DRY( 21,167)   DRY( 21,168)   DRY( 21,169)   
    DRY( 21,170)   DRY( 21,171)   DRY( 21,172)   DRY( 21,173)   DRY( 21,174)   
    DRY( 21,175)   DRY( 21,176)   DRY( 21,177)   DRY( 21,178)   DRY( 21,179)   
    DRY( 21,180)   DRY( 21,181)   DRY( 21,182)   DRY( 21,183)   DRY( 21,184)   
    DRY( 21,185)   DRY( 21,186)   DRY( 21,187)   DRY( 21,188)   DRY( 21,189)   
    DRY( 21,190)   DRY( 21,191)   DRY( 21,192)   DRY( 21,193)   DRY( 21,194)   
    DRY( 21,195)   DRY( 21,196)   DRY( 21,197)   DRY( 21,198)   DRY( 21,199)   
    DRY( 21,200)   DRY( 21,201)   DRY( 21,202)   DRY( 21,203)   DRY( 21,204)   
    DRY( 21,205)   DRY( 21,206)   DRY( 21,207)   DRY( 21,208)   DRY( 21,209)   
    DRY( 21,210)   DRY( 21,211)   DRY( 21,212)   DRY( 21,213)   DRY( 21,214)   
    DRY( 21,215)   DRY( 21,216)   DRY( 21,217)   DRY( 21,218)   DRY( 21,219)   
    DRY( 21,220)   DRY( 22, 40)   DRY( 22, 41)   DRY( 22, 42)   DRY( 22, 43)   
    DRY( 22, 44)   DRY( 22, 45)   DRY( 22, 46)   DRY( 22, 47)   DRY( 22, 48)   
    DRY( 22, 49)   DRY( 22, 50)   DRY( 22, 51)   DRY( 22, 52)   DRY( 22, 53)   
    DRY( 22, 54)   DRY( 22, 55)   DRY( 22, 56)   DRY( 22, 57)   DRY( 22, 58)   
    DRY( 22, 59)   DRY( 22, 60)   DRY( 22, 61)   DRY( 22, 62)   DRY( 22, 63)   
    DRY( 22, 64)   DRY( 22, 65)   DRY( 22, 66)   DRY( 22, 67)   DRY( 22, 68)   
    DRY( 22, 69)   DRY( 22, 70)   DRY( 22, 71)   DRY( 22, 72)   DRY( 22, 73)   
    DRY( 22, 74)   DRY( 22, 75)   DRY( 22, 76)   DRY( 22, 77)   DRY( 22, 78)   
    DRY( 22, 79)   DRY( 22, 80)   DRY( 22, 81)   DRY( 22, 82)   DRY( 22, 83)   
    DRY( 22, 84)   DRY( 22, 85)   DRY( 22, 86)   DRY( 22, 87)   DRY( 22, 88)   
    DRY( 22, 89)   DRY( 22, 90)   DRY( 22, 91)   DRY( 22, 92)   DRY( 22, 93)   
    DRY( 22, 94)   DRY( 22, 95)   DRY( 22, 96)   DRY( 22, 97)   DRY( 22, 98)   
    DRY( 22, 99)   DRY( 22,100)   DRY( 22,101)   DRY( 22,102)   DRY( 22,103)   
    DRY( 22,104)   DRY( 22,105)   DRY( 22,106)   DRY( 22,107)   DRY( 22,108)   
    DRY( 22,109)   DRY( 22,110)   DRY( 22,111)   DRY( 22,112)   DRY( 22,113)   
    DRY( 22,114)   DRY( 22,115)   DRY( 22,116)   DRY( 22,117)   DRY( 22,118)   
    DRY( 22,119)   DRY( 22,120)   DRY( 22,121)   DRY( 22,122)   DRY( 22,123)   
    DRY( 22,124)   DRY( 22,125)   DRY( 22,126)   DRY( 22,127)   DRY( 22,128)   
    DRY( 22,129)   DRY( 22,130)   DRY( 22,131)   DRY( 22,132)   DRY( 22,133)   
    DRY( 22,134)   DRY( 22,135)   DRY( 22,136)   DRY( 22,137)   DRY( 22,138)   
    DRY( 22,139)   DRY( 22,140)   DRY( 22,141)   DRY( 22,142)   DRY( 22,143)   
    DRY( 22,144)   DRY( 22,145)   DRY( 22,146)   DRY( 22,147)   DRY( 22,148)   
    DRY( 22,149)   DRY( 22,150)   DRY( 22,151)   DRY( 22,152)   DRY( 22,153)   
    DRY( 22,154)   DRY( 22,155)   DRY( 22,156)   DRY( 22,157)   DRY( 22,158)   
    DRY( 22,159)   DRY( 22,160)   DRY( 22,161)   DRY( 22,162)   DRY( 22,163)   
    DRY( 22,164)   DRY( 22,165)   DRY( 22,166)   DRY( 22,167)   DRY( 22,168)   
    DRY( 22,169)   DRY( 22,170)   DRY( 22,171)   DRY( 22,172)   DRY( 22,173)   
    DRY( 22,174)   DRY( 22,175)   DRY( 22,176)   DRY( 22,177)   DRY( 22,178)   
    DRY( 22,179)   DRY( 22,180)   DRY( 22,181)   DRY( 22,182)   DRY( 22,183)   
    DRY( 22,184)   DRY( 22,185)   DRY( 22,186)   DRY( 22,187)   DRY( 22,188)   
    DRY( 22,189)   DRY( 22,190)   DRY( 22,191)   DRY( 22,192)   DRY( 22,193)   
    DRY( 22,194)   DRY( 22,195)   DRY( 22,196)   DRY( 22,197)   DRY( 22,198)   
    DRY( 22,199)   DRY( 22,200)   DRY( 22,201)   DRY( 22,202)   DRY( 22,203)   
    DRY( 22,204)   DRY( 22,205)   DRY( 22,206)   DRY( 22,207)   DRY( 22,208)   
    DRY( 22,209)   DRY( 22,210)   DRY( 22,211)   DRY( 22,212)   DRY( 22,213)   
    DRY( 22,214)   DRY( 22,215)   DRY( 22,216)   DRY( 22,217)   DRY( 22,218)   
    DRY( 22,219)   DRY( 22,220)   DRY( 23, 82)   DRY( 23, 83)   DRY( 23, 84)   
    DRY( 23, 85)   DRY( 23, 86)   DRY( 23, 87)   DRY( 23, 88)   DRY( 23, 89)   
    DRY( 23, 90)   DRY( 23, 91)   DRY( 23, 92)   DRY( 23, 93)   DRY( 23, 94)   
    DRY( 23, 95)   DRY( 23, 96)   DRY( 23, 97)   DRY( 23, 98)   DRY( 23, 99)   
    DRY( 23,100)   DRY( 23,101)   DRY( 23,102)   DRY( 23,103)   DRY( 23,104)   
    DRY( 23,105)   DRY( 23,106)   DRY( 23,107)   DRY( 23,108)   DRY( 23,109)   
    DRY( 23,110)   DRY( 23,111)   DRY( 23,112)   DRY( 23,113)   DRY( 23,114)   
    DRY( 23,115)   DRY( 23,116)   DRY( 23,117)   DRY( 23,118)   DRY( 23,119)   
    DRY( 23,120)   DRY( 23,121)   DRY( 23,122)   DRY( 23,123)   DRY( 23,124)   
    DRY( 23,125)   DRY( 23,126)   DRY( 23,127)   DRY( 23,128)   DRY( 23,129)   
    DRY( 23,130)   DRY( 23,131)   DRY( 23,132)   DRY( 23,133)   DRY( 23,134)   
    DRY( 23,135)   DRY( 23,136)   DRY( 23,137)   DRY( 23,138)   DRY( 23,139)   
    DRY( 23,140)   DRY( 23,141)   DRY( 23,142)   DRY( 23,143)   DRY( 23,144)   
    DRY( 23,145)   DRY( 23,146)   DRY( 23,147)   DRY( 23,148)   DRY( 23,149)   
    DRY( 23,150)   DRY( 23,151)   DRY( 23,152)   DRY( 23,153)   DRY( 23,154)   
    DRY( 23,155)   DRY( 23,156)   DRY( 23,157)   DRY( 23,158)   DRY( 23,159)   
    DRY( 23,160)   DRY( 23,161)   DRY( 23,162)   DRY( 23,163)   DRY( 23,164)   
    DRY( 23,165)   DRY( 23,166)   DRY( 23,167)   DRY( 23,168)   DRY( 23,169)   
    DRY( 23,170)   DRY( 23,171)   DRY( 23,172)   DRY( 23,173)   DRY( 23,174)   
    DRY( 23,175)   DRY( 23,176)   DRY( 23,177)   DRY( 23,178)   DRY( 23,179)   
    DRY( 23,180)   DRY( 23,181)   DRY( 23,182)   DRY( 23,183)   DRY( 23,184)   
    DRY( 23,185)   DRY( 23,186)   DRY( 23,187)   DRY( 23,188)   DRY( 23,189)   
    DRY( 23,190)   DRY( 23,191)   DRY( 23,192)   DRY( 23,193)   DRY( 23,194)   
    DRY( 23,195)   DRY( 23,196)   DRY( 23,197)   DRY( 23,198)   DRY( 23,199)   
    DRY( 23,200)   DRY( 23,201)   DRY( 23,202)   DRY( 23,203)   DRY( 23,204)   
    DRY( 23,205)   DRY( 23,206)   DRY( 23,210)   DRY( 23,211)   DRY( 23,212)   
    DRY( 23,213)   DRY( 23,214)   DRY( 23,215)   DRY( 23,216)   DRY( 23,217)   
    DRY( 23,218)   DRY( 23,219)   DRY( 23,220)   DRY( 24,114)   DRY( 24,115)   
    DRY( 24,116)   DRY( 24,117)   DRY( 24,118)   DRY( 24,119)   DRY( 24,120)   
    DRY( 24,121)   DRY( 24,122)   DRY( 24,123)   DRY( 24,124)   DRY( 24,125)   
    DRY( 24,126)   DRY( 24,127)   DRY( 24,128)   DRY( 24,129)   DRY( 24,130)   
    DRY( 24,131)   DRY( 24,132)   DRY( 24,133)   DRY( 24,134)   DRY( 24,135)   
    DRY( 24,136)   DRY( 24,137)   DRY( 24,138)   DRY( 24,139)   DRY( 24,140)   
    DRY( 24,141)   DRY( 24,142)   DRY( 24,143)   DRY( 24,144)   DRY( 24,145)   
    DRY( 24,146)   DRY( 24,147)   DRY( 24,156)   DRY( 24,157)   DRY( 24,158)   
    DRY( 24,159)   DRY( 24,160)   DRY( 24,161)   DRY( 24,162)   DRY( 24,163)   
    DRY( 24,164)   DRY( 24,165)   DRY( 24,166)   DRY( 24,167)   DRY( 24,168)   
    DRY( 24,175)   DRY( 24,176)   DRY( 24,177)   DRY( 24,178)   DRY( 24,179)   
    DRY( 24,180)   DRY( 24,181)   DRY( 24,182)   DRY( 24,183)   DRY( 24,184)   
    DRY( 24,185)   DRY( 24,186)   DRY( 24,187)   DRY( 24,188)   DRY( 24,189)   
    DRY( 24,190)   DRY( 24,191)   DRY( 24,192)   DRY( 24,193)   DRY( 24,194)   
    DRY( 24,195)   DRY( 24,196)   DRY( 24,197)   DRY( 24,198)   DRY( 24,199)   
    DRY( 24,200)   DRY( 24,201)   DRY( 24,202)   DRY( 24,203)   DRY( 24,204)   
    DRY( 24,212)   DRY( 24,213)   DRY( 24,214)   DRY( 24,215)   DRY( 24,216)   
    DRY( 24,217)   DRY( 24,218)   DRY( 24,219)   DRY( 24,220)   DRY( 25,213)   
    DRY( 25,214)   DRY( 25,215)   DRY( 25,216)   DRY( 25,217)   DRY( 25,218)   
    DRY( 25,219)   DRY( 25,220)   DRY( 26,215)   DRY( 26,216)   DRY( 26,217)   
    DRY( 26,218)   DRY( 26,219)   DRY( 26,220)   DRY( 27,216)   DRY( 27,217)   
    DRY( 27,218)   DRY( 27,219)   DRY( 27,220)   DRY( 28,218)   DRY( 28,219)   
    DRY( 28,220)   

 CELL CONVERSIONS FOR ITER.=  3  LAYER= 11  STEP=  1  PERIOD=   1   (ROW,COL)
    DRY( 18,  1)   DRY( 18,  2)   DRY( 18,  3)   DRY( 18,  4)   DRY( 18,  5)   
    DRY( 18,  6)   DRY( 18,  7)   DRY( 18,  8)   DRY( 18,  9)   DRY( 18, 10)   
    DRY( 18, 11)   DRY( 18, 12)   DRY( 18, 13)   DRY( 19,  1)   DRY( 19,  2)   
    DRY( 19,  3)   DRY( 19,  4)   DRY( 19,  5)   DRY( 19,  6)   DRY( 19,  7)   
    DRY( 19,  8)   DRY( 19,  9)   DRY( 19, 10)   DRY( 19, 11)   DRY( 19, 12)   
    DRY( 19, 13)   DRY( 19, 14)   DRY( 19, 15)   DRY( 19, 16)   DRY( 19, 17)   
    DRY( 19, 18)   DRY( 19, 19)   DRY( 19, 20)   DRY( 19, 21)   DRY( 19, 22)   
    DRY( 19, 23)   DRY( 19, 24)   DRY( 19, 25)   DRY( 19, 26)   DRY( 19, 27)   
    DRY( 19, 28)   DRY( 19, 29)   DRY( 19, 30)   DRY( 19, 31)   DRY( 19, 32)   
    DRY( 19, 33)   DRY( 19, 34)   DRY( 19, 35)   DRY( 19, 36)   DRY( 19, 37)   
    DRY( 19, 38)   DRY( 19, 39)   DRY( 19, 40)   DRY( 19, 41)   DRY( 19, 42)   
    DRY( 19, 43)   DRY( 19, 44)   DRY( 19, 45)   DRY( 19, 46)   DRY( 19, 47)   
    DRY( 19, 48)   DRY( 19, 49)   DRY( 19, 50)   DRY( 19, 51)   DRY( 19, 52)   
    DRY( 19, 53)   DRY( 19, 54)   DRY( 19, 55)   DRY( 19, 56)   DRY( 19, 57)   
    DRY( 19, 58)   DRY( 19, 59)   DRY( 19, 60)   DRY( 19, 61)   DRY( 19, 62)   
    DRY( 19, 63)   DRY( 19, 64)   DRY( 19, 65)   DRY( 19, 66)   DRY( 19, 67)   
    DRY( 19, 68)   DRY( 19, 69)   DRY( 19, 70)   DRY( 19, 71)   DRY( 19, 72)   
    DRY( 19, 73)   DRY( 19, 74)   DRY( 19, 75)   DRY( 19, 76)   DRY( 19, 77)   
    DRY( 19, 78)   DRY( 19, 79)   DRY( 19, 80)   DRY( 19, 81)   DRY( 19, 82)   
    DRY( 19, 83)   DRY( 19, 84)   DRY( 19, 85)   DRY( 19, 86)   DRY( 19, 87)   
    DRY( 19, 88)   DRY( 19, 89)   DRY( 19, 90)   DRY( 19, 91)   DRY( 19, 92)   
    DRY( 19, 93)   DRY( 19, 94)   DRY( 19, 95)   DRY( 19, 96)   DRY( 19, 97)   
    DRY( 19, 98)   DRY( 19, 99)   DRY( 19,100)   DRY( 19,101)   DRY( 19,102)   
    DRY( 19,103)   DRY( 19,104)   DRY( 19,105)   DRY( 19,106)   DRY( 19,107)   
    DRY( 19,108)   DRY( 19,109)   DRY( 19,110)   DRY( 19,111)   DRY( 19,112)   
    DRY( 19,113)   DRY( 19,114)   DRY( 19,115)   DRY( 19,116)   DRY( 19,117)   
    DRY( 19,118)   DRY( 19,119)   DRY( 19,120)   DRY( 19,121)   DRY( 19,122)   
    DRY( 19,123)   DRY( 19,124)   DRY( 19,125)   DRY( 19,126)   DRY( 19,127)   
    DRY( 19,128)   DRY( 19,129)   DRY( 19,130)   DRY( 19,131)   DRY( 19,132)   
    DRY( 19,133)   DRY( 19,134)   DRY( 19,135)   DRY( 19,136)   DRY( 19,137)   
    DRY( 19,138)   DRY( 19,139)   DRY( 19,140)   DRY( 19,141)   DRY( 19,142)   
    DRY( 19,143)   DRY( 19,144)   DRY( 19,145)   DRY( 19,146)   DRY( 19,147)   
    DRY( 19,148)   DRY( 19,149)   DRY( 19,150)   DRY( 19,151)   DRY( 19,152)   
    DRY( 19,153)   DRY( 19,154)   DRY( 19,155)   DRY( 19,156)   DRY( 19,157)   
    DRY( 19,158)   DRY( 19,159)   DRY( 19,160)   DRY( 19,161)   DRY( 19,162)   
    DRY( 19,163)   DRY( 19,164)   DRY( 19,165)   DRY( 19,166)   DRY( 19,167)   
    DRY( 19,168)   DRY( 19,169)   DRY( 19,170)   DRY( 19,171)   DRY( 19,172)   
    DRY( 19,173)   DRY( 19,174)   DRY( 19,175)   DRY( 19,176)   DRY( 19,177)   
    DRY( 19,178)   DRY( 19,179)   DRY( 19,180)   DRY( 19,181)   DRY( 19,182)   
    DRY( 19,183)   DRY( 19,184)   DRY( 19,185)   DRY( 19,186)   DRY( 19,187)   
    DRY( 19,188)   DRY( 19,189)   DRY( 19,190)   DRY( 19,191)   DRY( 19,192)   
    DRY( 19,193)   DRY( 19,194)   DRY( 19,195)   DRY( 19,196)   DRY( 19,197)   
    DRY( 19,198)   DRY( 19,199)   DRY( 19,200)   DRY( 19,201)   DRY( 19,202)   
    DRY( 19,203)   DRY( 19,204)   DRY( 19,205)   DRY( 19,206)   DRY( 19,207)   
    DRY( 19,208)   DRY( 19,209)   DRY( 19,210)   DRY( 19,211)   DRY( 19,212)   
    DRY( 19,213)   DRY( 19,214)   DRY( 19,215)   DRY( 19,216)   DRY( 19,217)   
    DRY( 19,218)   DRY( 19,219)   DRY( 19,220)   DRY( 20,  1)   DRY( 20,  2)   
    DRY( 20,  3)   DRY( 20,  4)   DRY( 20,  5)   DRY( 20,  6)   DRY( 20,  7)   
    DRY( 20,  8)   DRY( 20,  9)   DRY( 20, 10)   DRY( 20, 11)   DRY( 20, 12)   
    DRY( 20, 13)   DRY( 20, 14)   DRY( 20, 15)   DRY( 20, 16)   DRY( 20, 17)   
    DRY( 20, 18)   DRY( 20, 19)   DRY( 20, 20)   DRY( 20, 21)   DRY( 20, 22)   
    DRY( 20, 23)   DRY( 20, 24)   DRY( 20, 25)   DRY( 20, 26)   DRY( 20, 27)   
    DRY( 20, 28)   DRY( 20, 29)   DRY( 20, 30)   DRY( 20, 31)   DRY( 20, 32)   
    DRY( 20, 33)   DRY( 20, 34)   DRY( 20, 35)   DRY( 20, 36)   DRY( 20, 37)   
    DRY( 20, 38)   DRY( 20, 39)   DRY( 20, 40)   DRY( 20, 41)   DRY( 20, 42)   
    DRY( 20, 43)   DRY( 20, 44)   DRY( 20, 45)   DRY( 20, 46)   DRY( 20, 47)   
    DRY( 20, 48)   DRY( 20, 49)   DRY( 20, 50)   DRY( 20, 51)   DRY( 20, 52)   
    DRY( 20, 53)   DRY( 20, 54)   DRY( 20, 55)   DRY( 20, 56)   DRY( 20, 57)   
    DRY( 20, 58)   DRY( 20, 59)   DRY( 20, 60)   DRY( 20, 61)   DRY( 20, 62)   
    DRY( 20, 63)   DRY( 20, 64)   DRY( 20, 65)   DRY( 20, 66)   DRY( 20, 67)   
    DRY( 20, 68)   DRY( 20, 69)   DRY( 20, 70)   DRY( 20, 71)   DRY( 20, 72)   
    DRY( 20, 73)   DRY( 20, 74)   DRY( 20, 75)   DRY( 20, 76)   DRY( 20, 77)   
    DRY( 20, 78)   DRY( 20, 79)   DRY( 20, 80)   DRY( 20, 81)   DRY( 20, 82)   
    DRY( 20, 83)   DRY( 20, 84)   DRY( 20, 85)   DRY( 20, 86)   DRY( 20, 87)   
    DRY( 20, 88)   DRY( 20, 89)   DRY( 20, 90)   DRY( 20, 91)   DRY( 20, 92)   
    DRY( 20, 93)   DRY( 20, 94)   DRY( 20, 95)   DRY( 20, 96)   DRY( 20, 97)   
    DRY( 20, 98)   DRY( 20, 99)   DRY( 20,100)   DRY( 20,101)   DRY( 20,102)   
    DRY( 20,103)   DRY( 20,104)   DRY( 20,105)   DRY( 20,106)   DRY( 20,107)   
    DRY( 20,108)   DRY( 20,109)   DRY( 20,110)   DRY( 20,111)   DRY( 20,112)   
    DRY( 20,113)   DRY( 20,114)   DRY( 20,115)   DRY( 20,116)   DRY( 20,117)   
    DRY( 20,118)   DRY( 20,119)   DRY( 20,120)   DRY( 20,121)   DRY( 20,122)   
    DRY( 20,123)   DRY( 20,124)   DRY( 20,125)   DRY( 20,126)   DRY( 20,127)   
    DRY( 20,128)   DRY( 20,129)   DRY( 20,130)   DRY( 20,131)   DRY( 20,132)   
    DRY( 20,133)   DRY( 20,134)   DRY( 20,135)   DRY( 20,136)   DRY( 20,137)   
    DRY( 20,138)   DRY( 20,139)   DRY( 20,140)   DRY( 20,141)   DRY( 20,142)   
    DRY( 20,143)   DRY( 20,144)   DRY( 20,145)   DRY( 20,146)   DRY( 20,147)   
    DRY( 20,148)   DRY( 20,149)   DRY( 20,150)   DRY( 20,151)   DRY( 20,152)   
    DRY( 20,153)   DRY( 20,154)   DRY( 20,155)   DRY( 20,156)   DRY( 20,157)   
    DRY( 20,158)   DRY( 20,159)   DRY( 20,160)   DRY( 20,161)   DRY( 20,162)   
    DRY( 20,163)   DRY( 20,164)   DRY( 20,165)   DRY( 20,166)   DRY( 20,167)   
    DRY( 20,168)   DRY( 20,169)   DRY( 20,170)   DRY( 20,171)   DRY( 20,172)   
    DRY( 20,173)   DRY( 20,174)   DRY( 20,175)   DRY( 20,176)   DRY( 20,177)   
    DRY( 20,178)   DRY( 20,179)   DRY( 20,180)   DRY( 20,181)   DRY( 20,182)   
    DRY( 20,183)   DRY( 20,184)   DRY( 20,185)   DRY( 20,186)   DRY( 20,187)   
    DRY( 20,188)   DRY( 20,189)   DRY( 20,190)   DRY( 20,191)   DRY( 20,192)   
    DRY( 20,193)   DRY( 20,194)   DRY( 20,195)   DRY( 20,196)   DRY( 20,197)   
    DRY( 20,198)   DRY( 20,199)   DRY( 20,200)   DRY( 20,201)   DRY( 20,202)   
    DRY( 20,203)   DRY( 20,204)   DRY( 20,205)   DRY( 20,206)   DRY( 20,207)   
    DRY( 20,208)   DRY( 20,209)   DRY( 20,210)   DRY( 20,211)   DRY( 20,212)   
    DRY( 20,213)   DRY( 20,214)   DRY( 20,215)   DRY( 20,216)   DRY( 20,217)   
    DRY( 20,218)   DRY( 20,219)   DRY( 20,220)   DRY( 21,  1)   DRY( 21,  2)   
    DRY( 21,  3)   DRY( 21,  4)   DRY( 21,  5)   DRY( 21,  6)   DRY( 21,  7)   
    DRY( 21,  8)   DRY( 21,  9)   DRY( 21, 10)   DRY( 21, 11)   DRY( 21, 12)   
    DRY( 21, 13)   DRY( 21, 14)   DRY( 21, 15)   DRY( 21, 16)   DRY( 21, 17)   
    DRY( 21, 18)   DRY( 21, 19)   DRY( 21, 20)   DRY( 21, 21)   DRY( 21, 22)   
    DRY( 21, 23)   DRY( 21, 24)   DRY( 21, 25)   DRY( 21, 26)   DRY( 21, 27)   
    DRY( 21, 28)   DRY( 21, 29)   DRY( 21, 30)   DRY( 21, 31)   DRY( 21, 32)   
    DRY( 21, 33)   DRY( 21, 34)   DRY( 21, 35)   DRY( 21, 36)   DRY( 21, 37)   
    DRY( 21, 38)   DRY( 21, 39)   DRY( 21, 40)   DRY( 21, 41)   DRY( 21, 42)   
    DRY( 21, 43)   DRY( 21, 44)   DRY( 21, 45)   DRY( 21, 46)   DRY( 21, 47)   
    DRY( 21, 48)   DRY( 21, 49)   DRY( 21, 50)   DRY( 21, 51)   DRY( 21, 52)   
    DRY( 21, 53)   DRY( 21, 54)   DRY( 21, 55)   DRY( 21, 56)   DRY( 21, 57)   
    DRY( 21, 58)   DRY( 21, 59)   DRY( 21, 60)   DRY( 21, 61)   DRY( 21, 62)   
    DRY( 21, 63)   DRY( 21, 64)   DRY( 21, 65)   DRY( 21, 66)   DRY( 21, 67)   
    DRY( 21, 68)   DRY( 21, 69)   DRY( 21, 70)   DRY( 21, 71)   DRY( 21, 72)   
    DRY( 21, 73)   DRY( 21, 74)   DRY( 21, 75)   DRY( 21, 76)   DRY( 21, 77)   
    DRY( 21, 78)   DRY( 21, 79)   DRY( 21, 80)   DRY( 21, 81)   DRY( 21, 82)   
    DRY( 21, 83)   DRY( 21, 84)   DRY( 21, 85)   DRY( 21, 86)   DRY( 21, 87)   
    DRY( 21, 88)   DRY( 21, 89)   DRY( 21, 90)   DRY( 21, 91)   DRY( 21, 92)   
    DRY( 21, 93)   DRY( 21, 94)   DRY( 21, 95)   DRY( 21, 96)   DRY( 21, 97)   
    DRY( 21, 98)   DRY( 21, 99)   DRY( 21,100)   DRY( 21,101)   DRY( 21,102)   
    DRY( 21,103)   DRY( 21,104)   DRY( 21,105)   DRY( 21,106)   DRY( 21,107)   
    DRY( 21,108)   DRY( 21,109)   DRY( 21,110)   DRY( 21,111)   DRY( 21,112)   
    DRY( 21,113)   DRY( 21,114)   DRY( 21,115)   DRY( 21,116)   DRY( 21,117)   
    DRY( 21,118)   DRY( 21,119)   DRY( 21,120)   DRY( 21,121)   DRY( 21,122)   
    DRY( 21,123)   DRY( 21,124)   DRY( 21,125)   DRY( 21,126)   DRY( 21,127)   
    DRY( 21,128)   DRY( 21,129)   DRY( 21,130)   DRY( 21,131)   DRY( 21,132)   
    DRY( 21,133)   DRY( 21,134)   DRY( 21,135)   DRY( 21,136)   DRY( 21,137)   
    DRY( 21,138)   DRY( 21,139)   DRY( 21,140)   DRY( 21,141)   DRY( 21,142)   
    DRY( 21,143)   DRY( 21,144)   DRY( 21,145)   DRY( 21,146)   DRY( 21,147)   
    DRY( 21,148)   DRY( 21,149)   DRY( 21,150)   DRY( 21,151)   DRY( 21,152)   
    DRY( 21,153)   DRY( 21,154)   DRY( 21,155)   DRY( 21,156)   DRY( 21,157)   
    DRY( 21,158)   DRY( 21,159)   DRY( 21,160)   DRY( 21,161)   DRY( 21,162)   
    DRY( 21,163)   DRY( 21,164)   DRY( 21,165)   DRY( 21,166)   DRY( 21,167)   
    DRY( 21,168)   DRY( 21,169)   DRY( 21,170)   DRY( 21,171)   DRY( 21,172)   
    DRY( 21,173)   DRY( 21,174)   DRY( 21,175)   DRY( 21,176)   DRY( 21,177)   
    DRY( 21,178)   DRY( 21,179)   DRY( 21,180)   DRY( 21,181)   DRY( 21,182)   
    DRY( 21,183)   DRY( 21,184)   DRY( 21,185)   DRY( 21,186)   DRY( 21,187)   
    DRY( 21,188)   DRY( 21,189)   DRY( 21,190)   DRY( 21,191)   DRY( 21,192)   
    DRY( 21,193)   DRY( 21,194)   DRY( 21,195)   DRY( 21,196)   DRY( 21,197)   
    DRY( 21,198)   DRY( 21,199)   DRY( 21,200)   DRY( 21,201)   DRY( 21,202)   
    DRY( 21,203)   DRY( 21,204)   DRY( 21,205)   DRY( 21,206)   DRY( 21,207)   
    DRY( 21,208)   DRY( 21,209)   DRY( 21,210)   DRY( 21,211)   DRY( 21,212)   
    DRY( 21,213)   DRY( 21,214)   DRY( 21,215)   DRY( 21,216)   DRY( 21,217)   
    DRY( 21,218)   DRY( 21,219)   DRY( 21,220)   DRY( 22,  1)   DRY( 22,  2)   
    DRY( 22,  3)   DRY( 22,  4)   DRY( 22,  5)   DRY( 22,  6)   DRY( 22,  7)   
    DRY( 22,  8)   DRY( 22,  9)   DRY( 22, 10)   DRY( 22, 11)   DRY( 22, 12)   
    DRY( 22, 13)   DRY( 22, 14)   DRY( 22, 15)   DRY( 22, 16)   DRY( 22, 17)   
    DRY( 22, 18)   DRY( 22, 19)   DRY( 22, 20)   DRY( 22, 21)   DRY( 22, 22)   
    DRY( 22, 23)   DRY( 22, 24)   DRY( 22, 25)   DRY( 22, 26)   DRY( 22, 27)   
    DRY( 22, 28)   DRY( 22, 29)   DRY( 22, 30)   DRY( 22, 31)   DRY( 22, 32)   
    DRY( 22, 33)   DRY( 22, 34)   DRY( 22, 35)   DRY( 22, 36)   DRY( 22, 37)   
    DRY( 22, 38)   DRY( 22, 39)   DRY( 22, 40)   DRY( 22, 41)   DRY( 22, 42)   
    DRY( 22, 43)   DRY( 22, 44)   DRY( 22, 45)   DRY( 22, 46)   DRY( 22, 47)   
    DRY( 22, 48)   DRY( 22, 49)   DRY( 22, 50)   DRY( 22, 51)   DRY( 22, 52)   
    DRY( 22, 53)   DRY( 22, 54)   DRY( 22, 55)   DRY( 22, 56)   DRY( 22, 57)   
    DRY( 22, 58)   DRY( 22, 59)   DRY( 22, 60)   DRY( 22, 61)   DRY( 22, 62)   
    DRY( 22, 63)   DRY( 22, 64)   DRY( 22, 65)   DRY( 22, 66)   DRY( 22, 67)   
    DRY( 22, 68)   DRY( 22, 69)   DRY( 22, 70)   DRY( 22, 71)   DRY( 22, 72)   
    DRY( 22, 73)   DRY( 22, 74)   DRY( 22, 75)   DRY( 22, 76)   DRY( 22, 77)   
    DRY( 22, 78)   DRY( 22, 79)   DRY( 22, 80)   DRY( 22, 81)   DRY( 22, 82)   
    DRY( 22, 83)   DRY( 22, 84)   DRY( 22, 85)   DRY( 22, 86)   DRY( 22, 87)   
    DRY( 22, 88)   DRY( 22, 89)   DRY( 22, 90)   DRY( 22, 91)   DRY( 22, 92)   
    DRY( 22, 93)   DRY( 22, 94)   DRY( 22, 95)   DRY( 22, 96)   DRY( 22, 97)   
    DRY( 22, 98)   DRY( 22, 99)   DRY( 22,100)   DRY( 22,101)   DRY( 22,102)   
    DRY( 22,103)   DRY( 22,104)   DRY( 22,105)   DRY( 22,106)   DRY( 22,107)   
    DRY( 22,108)   DRY( 22,109)   DRY( 22,110)   DRY( 22,111)   DRY( 22,112)   
    DRY( 22,113)   DRY( 22,114)   DRY( 22,115)   DRY( 22,116)   DRY( 22,117)   
    DRY( 22,118)   DRY( 22,119)   DRY( 22,120)   DRY( 22,121)   DRY( 22,122)   
    DRY( 22,123)   DRY( 22,124)   DRY( 22,125)   DRY( 22,126)   DRY( 22,127)   
    DRY( 22,128)   DRY( 22,129)   DRY( 22,130)   DRY( 22,131)   DRY( 22,132)   
    DRY( 22,133)   DRY( 22,134)   DRY( 22,135)   DRY( 22,136)   DRY( 22,137)   
    DRY( 22,138)   DRY( 22,139)   DRY( 22,140)   DRY( 22,141)   DRY( 22,142)   
    DRY( 22,143)   DRY( 22,144)   DRY( 22,145)   DRY( 22,146)   DRY( 22,147)   
    DRY( 22,148)   DRY( 22,149)   DRY( 22,150)   DRY( 22,151)   DRY( 22,152)   
    DRY( 22,153)   DRY( 22,154)   DRY( 22,155)   DRY( 22,156)   DRY( 22,157)   
    DRY( 22,158)   DRY( 22,159)   DRY( 22,160)   DRY( 22,161)   DRY( 22,162)   
    DRY( 22,163)   DRY( 22,164)   DRY( 22,165)   DRY( 22,166)   DRY( 22,167)   
    DRY( 22,168)   DRY( 22,169)   DRY( 22,170)   DRY( 22,171)   DRY( 22,172)   
    DRY( 22,173)   DRY( 22,174)   DRY( 22,175)   DRY( 22,176)   DRY( 22,177)   
    DRY( 22,178)   DRY( 22,179)   DRY( 22,180)   DRY( 22,181)   DRY( 22,182)   
    DRY( 22,183)   DRY( 22,184)   DRY( 22,185)   DRY( 22,186)   DRY( 22,187)   
    DRY( 22,188)   DRY( 22,189)   DRY( 22,190)   DRY( 22,191)   DRY( 22,192)   
    DRY( 22,193)   DRY( 22,194)   DRY( 22,195)   DRY( 22,196)   DRY( 22,197)   
    DRY( 22,198)   DRY( 22,199)   DRY( 22,200)   DRY( 22,201)   DRY( 22,202)   
    DRY( 22,203)   DRY( 22,204)   DRY( 22,205)   DRY( 22,206)   DRY( 22,207)   
    DRY( 22,208)   DRY( 22,209)   DRY( 22,210)   DRY( 22,211)   DRY( 22,212)   
    DRY( 22,213)   DRY( 22,214)   DRY( 22,215)   DRY( 22,216)   DRY( 22,217)   
    DRY( 22,218)   DRY( 22,219)   DRY( 22,220)   DRY( 23,  4)   DRY( 23,  5)   
    DRY( 23,  6)   DRY( 23,  7)   DRY( 23,  8)   DRY( 23,  9)   DRY( 23, 10)   
    DRY( 23, 11)   DRY( 23, 12)   DRY( 23, 13)   DRY( 23, 14)   DRY( 23, 15)   
    DRY( 23, 16)   DRY( 23, 17)   DRY( 23, 18)   DRY( 23, 19)   DRY( 23, 20)   
    DRY( 23, 21)   DRY( 23, 22)   DRY( 23, 23)   DRY( 23, 24)   DRY( 23, 25)   
    DRY( 23, 26)   DRY( 23, 27)   DRY( 23, 28)   DRY( 23, 29)   DRY( 23, 30)   
    DRY( 23, 31)   DRY( 23, 32)   DRY( 23, 33)   DRY( 23, 34)   DRY( 23, 35)   
    DRY( 23, 36)   DRY( 23, 37)   DRY( 23, 38)   DRY( 23, 39)   DRY( 23, 40)   
    DRY( 23, 41)   DRY( 23, 42)   DRY( 23, 43)   DRY( 23, 44)   DRY( 23, 45)   
    DRY( 23, 46)   DRY( 23, 47)   DRY( 23, 48)   DRY( 23, 49)   DRY( 23, 50)   
    DRY( 23, 51)   DRY( 23, 52)   DRY( 23, 53)   DRY( 23, 54)   DRY( 23, 55)   
    DRY( 23, 56)   DRY( 23, 57)   DRY( 23, 58)   DRY( 23, 59)   DRY( 23, 60)   
    DRY( 23, 61)   DRY( 23, 62)   DRY( 23, 63)   DRY( 23, 64)   DRY( 23, 65)   
    DRY( 23, 66)   DRY( 23, 67)   DRY( 23, 68)   DRY( 23, 69)   DRY( 23, 70)   
    DRY( 23, 71)   DRY( 23, 72)   DRY( 23, 73)   DRY( 23, 74)   DRY( 23, 75)   
    DRY( 23, 76)   DRY( 23, 77)   DRY( 23, 78)   DRY( 23, 79)   DRY( 23, 80)   
    DRY( 23, 81)   DRY( 23, 82)   DRY( 23, 83)   DRY( 23, 84)   DRY( 23, 85)   
    DRY( 23, 86)   DRY( 23, 87)   DRY( 23, 88)   DRY( 23, 89)   DRY( 23, 90)   
    DRY( 23, 91)   DRY( 23, 92)   DRY( 23, 93)   DRY( 23, 94)   DRY( 23, 95)   
    DRY( 23, 96)   DRY( 23, 97)   DRY( 23, 98)   DRY( 23, 99)   DRY( 23,100)   
    DRY( 23,101)   DRY( 23,102)   DRY( 23,103)   DRY( 23,104)   DRY( 23,105)   
    DRY( 23,106)   DRY( 23,107)   DRY( 23,108)   DRY( 23,109)   DRY( 23,110)   
    DRY( 23,111)   DRY( 23,112)   DRY( 23,113)   DRY( 23,114)   DRY( 23,115)   
    DRY( 23,116)   DRY( 23,117)   DRY( 23,118)   DRY( 23,119)   DRY( 23,120)   
    DRY( 23,121)   DRY( 23,122)   DRY( 23,123)   DRY( 23,124)   DRY( 23,125)   
    DRY( 23,126)   DRY( 23,127)   DRY( 23,128)   DRY( 23,129)   DRY( 23,130)   
    DRY( 23,131)   DRY( 23,132)   DRY( 23,133)   DRY( 23,134)   DRY( 23,135)   
    DRY( 23,136)   DRY( 23,137)   DRY( 23,138)   DRY( 23,139)   DRY( 23,140)   
    DRY( 23,141)   DRY( 23,142)   DRY( 23,143)   DRY( 23,144)   DRY( 23,145)   
    DRY( 23,146)   DRY( 23,147)   DRY( 23,148)   DRY( 23,149)   DRY( 23,150)   
    DRY( 23,151)   DRY( 23,152)   DRY( 23,153)   DRY( 23,154)   DRY( 23,155)   
    DRY( 23,156)   DRY( 23,157)   DRY( 23,158)   DRY( 23,159)   DRY( 23,160)   
    DRY( 23,161)   DRY( 23,162)   DRY( 23,163)   DRY( 23,164)   DRY( 23,165)   
    DRY( 23,166)   DRY( 23,167)   DRY( 23,168)   DRY( 23,169)   DRY( 23,170)   
    DRY( 23,171)   DRY( 23,172)   DRY( 23,173)   DRY( 23,174)   DRY( 23,175)   
    DRY( 23,176)   DRY( 23,177)   DRY( 23,178)   DRY( 23,179)   DRY( 23,180)   
    DRY( 23,181)   DRY( 23,182)   DRY( 23,183)   DRY( 23,184)   DRY( 23,185)   
    DRY( 23,186)   DRY( 23,187)   DRY( 23,188)   DRY( 23,189)   DRY( 23,190)   
    DRY( 23,191)   DRY( 23,192)   DRY( 23,193)   DRY( 23,194)   DRY( 23,195)   
    DRY( 23,196)   DRY( 23,197)   DRY( 23,198)   DRY( 23,199)   DRY( 23,200)   
    DRY( 23,201)   DRY( 23,202)   DRY( 23,203)   DRY( 23,204)   DRY( 23,205)   
    DRY( 23,206)   DRY( 23,207)   DRY( 23,208)   DRY( 23,209)   DRY( 23,210)   
    DRY( 23,211)   DRY( 23,212)   DRY( 23,213)   DRY( 23,214)   DRY( 23,215)   
    DRY( 23,216)   DRY( 23,217)   DRY( 23,218)   DRY( 23,219)   DRY( 23,220)   
    DRY( 24,  6)   DRY( 24,  7)   DRY( 24,  8)   DRY( 24,  9)   DRY( 24, 10)   
    DRY( 24, 11)   DRY( 24, 12)   DRY( 24, 13)   DRY( 24, 14)   DRY( 24, 15)   
    DRY( 24, 16)   DRY( 24, 17)   DRY( 24, 18)   DRY( 24, 19)   DRY( 24, 20)   
    DRY( 24, 21)   DRY( 24, 22)   DRY( 24, 23)   DRY( 24, 24)   DRY( 24, 25)   
    DRY( 24, 26)   DRY( 24, 27)   DRY( 24, 28)   DRY( 24, 29)   DRY( 24, 30)   
    DRY( 24, 31)   DRY( 24, 32)   DRY( 24, 33)   DRY( 24, 34)   DRY( 24, 35)   
    DRY( 24, 36)   DRY( 24, 37)   DRY( 24, 38)   DRY( 24, 39)   DRY( 24, 40)   
    DRY( 24, 41)   DRY( 24, 42)   DRY( 24, 43)   DRY( 24, 44)   DRY( 24, 45)   
    DRY( 24, 46)   DRY( 24, 47)   DRY( 24, 48)   DRY( 24, 49)   DRY( 24, 50)   
    DRY( 24, 51)   DRY( 24, 52)   DRY( 24, 53)   DRY( 24, 54)   DRY( 24, 55)   
    DRY( 24, 56)   DRY( 24, 57)   DRY( 24, 58)   DRY( 24, 59)   DRY( 24, 60)   
    DRY( 24, 61)   DRY( 24, 62)   DRY( 24, 63)   DRY( 24, 64)   DRY( 24, 65)   
    DRY( 24, 66)   DRY( 24, 67)   DRY( 24, 68)   DRY( 24, 69)   DRY( 24, 70)   
    DRY( 24, 71)   DRY( 24, 72)   DRY( 24, 73)   DRY( 24, 74)   DRY( 24, 75)   
    DRY( 24, 76)   DRY( 24, 77)   DRY( 24, 78)   DRY( 24, 79)   DRY( 24, 80)   
    DRY( 24, 81)   DRY( 24, 82)   DRY( 24, 83)   DRY( 24, 84)   DRY( 24, 85)   
    DRY( 24, 86)   DRY( 24, 87)   DRY( 24, 88)   DRY( 24, 89)   DRY( 24, 90)   
    DRY( 24, 91)   DRY( 24, 92)   DRY( 24, 93)   DRY( 24, 94)   DRY( 24, 95)   
    DRY( 24, 96)   DRY( 24, 97)   DRY( 24, 98)   DRY( 24, 99)   DRY( 24,100)   
    DRY( 24,101)   DRY( 24,102)   DRY( 24,103)   DRY( 24,104)   DRY( 24,105)   
    DRY( 24,106)   DRY( 24,107)   DRY( 24,108)   DRY( 24,109)   DRY( 24,110)   
    DRY( 24,111)   DRY( 24,112)   DRY( 24,113)   DRY( 24,114)   DRY( 24,115)   
    DRY( 24,116)   DRY( 24,117)   DRY( 24,118)   DRY( 24,119)   DRY( 24,120)   
    DRY( 24,121)   DRY( 24,122)   DRY( 24,123)   DRY( 24,124)   DRY( 24,125)   
    DRY( 24,126)   DRY( 24,127)   DRY( 24,128)   DRY( 24,129)   DRY( 24,130)   
    DRY( 24,131)   DRY( 24,132)   DRY( 24,133)   DRY( 24,134)   DRY( 24,135)   
    DRY( 24,136)   DRY( 24,137)   DRY( 24,138)   DRY( 24,139)   DRY( 24,140)   
    DRY( 24,141)   DRY( 24,142)   DRY( 24,143)   DRY( 24,144)   DRY( 24,145)   
    DRY( 24,146)   DRY( 24,147)   DRY( 24,148)   DRY( 24,149)   DRY( 24,150)   
    DRY( 24,151)   DRY( 24,152)   DRY( 24,153)   DRY( 24,154)   DRY( 24,155)   
    DRY( 24,156)   DRY( 24,157)   DRY( 24,158)   DRY( 24,159)   DRY( 24,160)   
    DRY( 24,161)   DRY( 24,162)   DRY( 24,163)   DRY( 24,164)   DRY( 24,165)   
    DRY( 24,166)   DRY( 24,167)   DRY( 24,168)   DRY( 24,169)   DRY( 24,170)   
    DRY( 24,171)   DRY( 24,172)   DRY( 24,173)   DRY( 24,174)   DRY( 24,175)   
    DRY( 24,176)   DRY( 24,177)   DRY( 24,178)   DRY( 24,179)   DRY( 24,180)   
    DRY( 24,181)   DRY( 24,182)   DRY( 24,183)   DRY( 24,184)   DRY( 24,185)   
    DRY( 24,186)   DRY( 24,187)   DRY( 24,188)   DRY( 24,189)   DRY( 24,190)   
    DRY( 24,191)   DRY( 24,192)   DRY( 24,193)   DRY( 24,194)   DRY( 24,195)   
    DRY( 24,196)   DRY( 24,197)   DRY( 24,198)   DRY( 24,199)   DRY( 24,200)   
    DRY( 24,201)   DRY( 24,202)   DRY( 24,203)   DRY( 24,204)   DRY( 24,205)   
    DRY( 24,206)   DRY( 24,207)   DRY( 24,208)   DRY( 24,209)   DRY( 24,210)   
    DRY( 24,211)   DRY( 24,212)   DRY( 24,213)   DRY( 24,214)   DRY( 24,215)   
    DRY( 24,216)   DRY( 24,217)   DRY( 24,218)   DRY( 24,219)   DRY( 24,220)   
    DRY( 25, 14)   DRY( 25, 15)   DRY( 25, 16)   DRY( 25, 17)   DRY( 25, 18)   
    DRY( 25, 25)   DRY( 25, 26)   DRY( 25, 27)   DRY( 25, 28)   DRY( 25, 29)   
    DRY( 25, 30)   DRY( 25, 31)   DRY( 25, 32)   DRY( 25, 33)   DRY( 25, 34)   
    DRY( 25, 35)   DRY( 25, 36)   DRY( 25, 37)   DRY( 25, 38)   DRY( 25, 39)   
    DRY( 25, 40)   DRY( 25, 41)   DRY( 25, 42)   DRY( 25, 43)   DRY( 25, 44)   
    DRY( 25, 45)   DRY( 25, 46)   DRY( 25, 47)   DRY( 25, 48)   DRY( 25, 49)   
    DRY( 25, 50)   DRY( 25, 51)   DRY( 25, 52)   DRY( 25, 53)   DRY( 25, 54)   
    DRY( 25, 55)   DRY( 25, 56)   DRY( 25, 57)   DRY( 25, 58)   DRY( 25, 59)   
    DRY( 25, 60)   DRY( 25, 61)   DRY( 25, 62)   DRY( 25, 63)   DRY( 25, 64)   
    DRY( 25, 65)   DRY( 25, 66)   DRY( 25, 67)   DRY( 25, 68)   DRY( 25, 69)   
    DRY( 25, 70)   DRY( 25, 71)   DRY( 25, 72)   DRY( 25, 73)   DRY( 25, 74)   
    DRY( 25, 75)   DRY( 25, 76)   DRY( 25, 77)   DRY( 25, 78)   DRY( 25, 79)   
    DRY( 25, 80)   DRY( 25, 81)   DRY( 25, 82)   DRY( 25, 83)   DRY( 25, 84)   
    DRY( 25, 85)   DRY( 25, 86)   DRY( 25, 87)   DRY( 25, 88)   DRY( 25, 89)   
    DRY( 25, 90)   DRY( 25, 91)   DRY( 25, 92)   DRY( 25, 93)   DRY( 25, 94)   
    DRY( 25, 95)   DRY( 25, 96)   DRY( 25, 97)   DRY( 25, 98)   DRY( 25, 99)   
    DRY( 25,100)   DRY( 25,101)   DRY( 25,102)   DRY( 25,103)   DRY( 25,104)   
    DRY( 25,105)   DRY( 25,106)   DRY( 25,107)   DRY( 25,108)   DRY( 25,109)   
    DRY( 25,110)   DRY( 25,111)   DRY( 25,112)   DRY( 25,113)   DRY( 25,114)   
    DRY( 25,115)   DRY( 25,116)   DRY( 25,117)   DRY( 25,118)   DRY( 25,119)   
    DRY( 25,120)   DRY( 25,121)   DRY( 25,122)   DRY( 25,123)   DRY( 25,124)   
    DRY( 25,125)   DRY( 25,126)   DRY( 25,127)   DRY( 25,128)   DRY( 25,129)   
    DRY( 25,130)   DRY( 25,131)   DRY( 25,132)   DRY( 25,133)   DRY( 25,134)   
    DRY( 25,135)   DRY( 25,136)   DRY( 25,137)   DRY( 25,138)   DRY( 25,139)   
    DRY( 25,140)   DRY( 25,141)   DRY( 25,142)   DRY( 25,143)   DRY( 25,144)   
    DRY( 25,145)   DRY( 25,146)   DRY( 25,147)   DRY( 25,148)   DRY( 25,149)   
    DRY( 25,150)   DRY( 25,151)   DRY( 25,152)   DRY( 25,153)   DRY( 25,154)   
    DRY( 25,155)   DRY( 25,156)   DRY( 25,157)   DRY( 25,158)   DRY( 25,159)   
    DRY( 25,160)   DRY( 25,161)   DRY( 25,162)   DRY( 25,163)   DRY( 25,164)   
    DRY( 25,165)   DRY( 25,166)   DRY( 25,167)   DRY( 25,168)   DRY( 25,169)   
    DRY( 25,170)   DRY( 25,171)   DRY( 25,172)   DRY( 25,173)   DRY( 25,174)   
    DRY( 25,175)   DRY( 25,176)   DRY( 25,177)   DRY( 25,178)   DRY( 25,179)   
    DRY( 25,180)   DRY( 25,181)   DRY( 25,182)   DRY( 25,183)   DRY( 25,184)   
    DRY( 25,185)   DRY( 25,186)   DRY( 25,187)   DRY( 25,188)   DRY( 25,189)   
    DRY( 25,190)   DRY( 25,191)   DRY( 25,192)   DRY( 25,193)   DRY( 25,194)   
    DRY( 25,195)   DRY( 25,196)   DRY( 25,197)   DRY( 25,198)   DRY( 25,199)   
    DRY( 25,200)   DRY( 25,201)   DRY( 25,202)   DRY( 25,203)   DRY( 25,204)   
    DRY( 25,205)   DRY( 25,206)   DRY( 25,207)   DRY( 25,208)   DRY( 25,209)   
    DRY( 25,210)   DRY( 25,211)   DRY( 25,212)   DRY( 25,213)   DRY( 25,214)   
    DRY( 25,215)   DRY( 25,216)   DRY( 25,217)   DRY( 25,218)   DRY( 25,219)   
    DRY( 25,220)   DRY( 26, 41)   DRY( 26, 42)   DRY( 26, 43)   DRY( 26, 44)   
    DRY( 26, 45)   DRY( 26, 46)   DRY( 26, 47)   DRY( 26, 48)   DRY( 26, 49)   
    DRY( 26, 50)   DRY( 26, 51)   DRY( 26, 52)   DRY( 26, 53)   DRY( 26, 54)   
    DRY( 26, 55)   DRY( 26, 56)   DRY( 26, 57)   DRY( 26, 58)   DRY( 26, 59)   
    DRY( 26, 60)   DRY( 26, 61)   DRY( 26, 62)   DRY( 26, 63)   DRY( 26, 64)   
    DRY( 26, 65)   DRY( 26, 66)   DRY( 26, 67)   DRY( 26, 68)   DRY( 26, 69)   
    DRY( 26, 70)   DRY( 26, 71)   DRY( 26, 72)   DRY( 26, 73)   DRY( 26, 74)   
    DRY( 26, 75)   DRY( 26, 76)   DRY( 26, 77)   DRY( 26, 78)   DRY( 26, 79)   
    DRY( 26, 80)   DRY( 26, 81)   DRY( 26, 82)   DRY( 26, 83)   DRY( 26, 84)   
    DRY( 26, 85)   DRY( 26, 86)   DRY( 26, 87)   DRY( 26, 88)   DRY( 26, 89)   
    DRY( 26, 90)   DRY( 26, 91)   DRY( 26, 92)   DRY( 26, 93)   DRY( 26, 94)   
    DRY( 26, 95)   DRY( 26, 96)   DRY( 26, 97)   DRY( 26, 98)   DRY( 26, 99)   
    DRY( 26,100)   DRY( 26,101)   DRY( 26,102)   DRY( 26,103)   DRY( 26,104)   
    DRY( 26,105)   DRY( 26,106)   DRY( 26,107)   DRY( 26,108)   DRY( 26,109)   
    DRY( 26,110)   DRY( 26,111)   DRY( 26,112)   DRY( 26,113)   DRY( 26,114)   
    DRY( 26,115)   DRY( 26,116)   DRY( 26,117)   DRY( 26,118)   DRY( 26,119)   
    DRY( 26,120)   DRY( 26,121)   DRY( 26,122)   DRY( 26,123)   DRY( 26,124)   
    DRY( 26,125)   DRY( 26,126)   DRY( 26,127)   DRY( 26,128)   DRY( 26,129)   
    DRY( 26,130)   DRY( 26,131)   DRY( 26,132)   DRY( 26,133)   DRY( 26,134)   
    DRY( 26,135)   DRY( 26,136)   DRY( 26,137)   DRY( 26,138)   DRY( 26,139)   
    DRY( 26,140)   DRY( 26,141)   DRY( 26,142)   DRY( 26,143)   DRY( 26,144)   
    DRY( 26,145)   DRY( 26,146)   DRY( 26,147)   DRY( 26,148)   DRY( 26,149)   
    DRY( 26,150)   DRY( 26,151)   DRY( 26,152)   DRY( 26,153)   DRY( 26,154)   
    DRY( 26,155)   DRY( 26,156)   DRY( 26,157)   DRY( 26,158)   DRY( 26,159)   
    DRY( 26,160)   DRY( 26,161)   DRY( 26,162)   DRY( 26,163)   DRY( 26,164)   
    DRY( 26,165)   DRY( 26,166)   DRY( 26,167)   DRY( 26,168)   DRY( 26,169)   
    DRY( 26,170)   DRY( 26,171)   DRY( 26,172)   DRY( 26,173)   DRY( 26,174)   
    DRY( 26,175)   DRY( 26,176)   DRY( 26,177)   DRY( 26,178)   DRY( 26,179)   
    DRY( 26,180)   DRY( 26,181)   DRY( 26,182)   DRY( 26,183)   DRY( 26,184)   
    DRY( 26,185)   DRY( 26,186)   DRY( 26,187)   DRY( 26,188)   DRY( 26,189)   
    DRY( 26,190)   DRY( 26,191)   DRY( 26,192)   DRY( 26,193)   DRY( 26,194)   
    DRY( 26,195)   DRY( 26,196)   DRY( 26,197)   DRY( 26,198)   DRY( 26,199)   
    DRY( 26,200)   DRY( 26,201)   DRY( 26,202)   DRY( 26,203)   DRY( 26,204)   
    DRY( 26,205)   DRY( 26,206)   DRY( 26,207)   DRY( 26,208)   DRY( 26,209)   
    DRY( 26,210)   DRY( 26,211)   DRY( 26,212)   DRY( 26,213)   DRY( 26,214)   
    DRY( 26,215)   DRY( 26,216)   DRY( 26,217)   DRY( 26,218)   DRY( 26,219)   
    DRY( 26,220)   DRY( 27, 51)   DRY( 27, 52)   DRY( 27, 53)   DRY( 27, 54)   
    DRY( 27, 55)   DRY( 27, 56)   DRY( 27, 57)   DRY( 27, 58)   DRY( 27, 59)   
    DRY( 27, 60)   DRY( 27, 87)   DRY( 27, 88)   DRY( 27, 89)   DRY( 27, 90)   
    DRY( 27, 91)   DRY( 27, 92)   DRY( 27, 93)   DRY( 27, 94)   DRY( 27, 95)   
    DRY( 27, 96)   DRY( 27, 97)   DRY( 27, 98)   DRY( 27, 99)   DRY( 27,100)   
    DRY( 27,101)   DRY( 27,102)   DRY( 27,103)   DRY( 27,104)   DRY( 27,105)   
    DRY( 27,106)   DRY( 27,107)   DRY( 27,108)   DRY( 27,109)   DRY( 27,110)   
    DRY( 27,111)   DRY( 27,112)   DRY( 27,113)   DRY( 27,114)   DRY( 27,115)   
    DRY( 27,116)   DRY( 27,117)   DRY( 27,118)   DRY( 27,119)   DRY( 27,120)   
    DRY( 27,121)   DRY( 27,122)   DRY( 27,123)   DRY( 27,124)   DRY( 27,125)   
    DRY( 27,126)   DRY( 27,127)   DRY( 27,128)   DRY( 27,129)   DRY( 27,130)   
    DRY( 27,131)   DRY( 27,132)   DRY( 27,133)   DRY( 27,134)   DRY( 27,135)   
    DRY( 27,136)   DRY( 27,137)   DRY( 27,138)   DRY( 27,139)   DRY( 27,140)   
    DRY( 27,141)   DRY( 27,142)   DRY( 27,143)   DRY( 27,144)   DRY( 27,145)   
    DRY( 27,146)   DRY( 27,147)   DRY( 27,148)   DRY( 27,149)   DRY( 27,150)   
    DRY( 27,151)   DRY( 27,152)   DRY( 27,153)   DRY( 27,154)   DRY( 27,155)   
    DRY( 27,156)   DRY( 27,157)   DRY( 27,158)   DRY( 27,159)   DRY( 27,160)   
    DRY( 27,161)   DRY( 27,162)   DRY( 27,163)   DRY( 27,164)   DRY( 27,165)   
    DRY( 27,166)   DRY( 27,167)   DRY( 27,168)   DRY( 27,169)   DRY( 27,170)   
    DRY( 27,171)   DRY( 27,172)   DRY( 27,173)   DRY( 27,174)   DRY( 27,175)   
    DRY( 27,176)   DRY( 27,177)   DRY( 27,178)   DRY( 27,179)   DRY( 27,180)   
    DRY( 27,181)   DRY( 27,182)   DRY( 27,183)   DRY( 27,184)   DRY( 27,185)   
    DRY( 27,186)   DRY( 27,187)   DRY( 27,188)   DRY( 27,189)   DRY( 27,190)   
    DRY( 27,191)   DRY( 27,192)   DRY( 27,193)   DRY( 27,194)   DRY( 27,195)   
    DRY( 27,196)   DRY( 27,197)   DRY( 27,198)   DRY( 27,199)   DRY( 27,200)   
    DRY( 27,201)   DRY( 27,202)   DRY( 27,203)   DRY( 27,204)   DRY( 27,205)   
    DRY( 27,206)   DRY( 27,207)   DRY( 27,208)   DRY( 27,209)   DRY( 27,210)   
    DRY( 27,211)   DRY( 27,212)   DRY( 27,213)   DRY( 27,214)   DRY( 27,215)   
    DRY( 27,216)   DRY( 27,217)   DRY( 27,218)   DRY( 27,219)   DRY( 27,220)   
    DRY( 28,112)   DRY( 28,113)   DRY( 28,114)   DRY( 28,115)   DRY( 28,116)   
    DRY( 28,117)   DRY( 28,118)   DRY( 28,119)   DRY( 28,120)   DRY( 28,121)   
    DRY( 28,122)   DRY( 28,123)   DRY( 28,124)   DRY( 28,125)   DRY( 28,126)   
    DRY( 28,127)   DRY( 28,128)   DRY( 28,129)   DRY( 28,130)   DRY( 28,131)   
    DRY( 28,132)   DRY( 28,133)   DRY( 28,134)   DRY( 28,135)   DRY( 28,136)   
    DRY( 28,137)   DRY( 28,138)   DRY( 28,139)   DRY( 28,140)   DRY( 28,141)   
    DRY( 28,142)   DRY( 28,143)   DRY( 28,144)   DRY( 28,145)   DRY( 28,146)   
    DRY( 28,147)   DRY( 28,148)   DRY( 28,149)   DRY( 28,150)   DRY( 28,151)   
    DRY( 28,152)   DRY( 28,153)   DRY( 28,154)   DRY( 28,155)   DRY( 28,156)   
    DRY( 28,157)   DRY( 28,158)   DRY( 28,159)   DRY( 28,160)   DRY( 28,161)   
    DRY( 28,162)   DRY( 28,163)   DRY( 28,164)   DRY( 28,165)   DRY( 28,166)   
    DRY( 28,167)   DRY( 28,168)   DRY( 28,169)   DRY( 28,170)   DRY( 28,171)   
    DRY( 28,172)   DRY( 28,173)   DRY( 28,174)   DRY( 28,175)   DRY( 28,176)   
    DRY( 28,177)   DRY( 28,178)   DRY( 28,179)   DRY( 28,180)   DRY( 28,181)   
    DRY( 28,182)   DRY( 28,183)   DRY( 28,184)   DRY( 28,185)   DRY( 28,186)   
    DRY( 28,187)   DRY( 28,188)   DRY( 28,189)   DRY( 28,190)   DRY( 28,191)   
    DRY( 28,192)   DRY( 28,193)   DRY( 28,194)   DRY( 28,195)   DRY( 28,196)   
    DRY( 28,197)   DRY( 28,198)   DRY( 28,199)   DRY( 28,200)   DRY( 28,201)   
    DRY( 28,202)   DRY( 28,203)   DRY( 28,204)   DRY( 28,205)   DRY( 28,206)   
    DRY( 28,207)   DRY( 28,208)   DRY( 28,209)   DRY( 28,210)   DRY( 28,211)   
    DRY( 28,212)   DRY( 28,213)   DRY( 28,214)   DRY( 28,215)   DRY( 28,216)   
    DRY( 28,217)   DRY( 28,218)   DRY( 28,219)   DRY( 28,220)   DRY( 29,143)   
    DRY( 29,144)   DRY( 29,145)   DRY( 29,146)   DRY( 29,166)   DRY( 29,182)   
    DRY( 29,183)   DRY( 29,184)   DRY( 29,185)   DRY( 29,186)   DRY( 29,213)   
    DRY( 29,214)   DRY( 29,215)   DRY( 29,216)   DRY( 29,217)   DRY( 29,218)   
    DRY( 29,219)   DRY( 29,220)   DRY( 30,216)   DRY( 30,217)   DRY( 30,218)   
    DRY( 30,219)   DRY( 30,220)   DRY( 31,218)   DRY( 31,219)   DRY( 31,220)   

 CELL CONVERSIONS FOR ITER.=  3  LAYER= 12  STEP=  1  PERIOD=   1   (ROW,COL)
    DRY( 21,  1)   DRY( 21,  2)   DRY( 21,  3)   DRY( 21,  4)   DRY( 21,  5)   
    DRY( 21,  6)   DRY( 21,  7)   DRY( 21,  8)   DRY( 21,  9)   DRY( 21, 10)   
    DRY( 21, 11)   DRY( 21, 12)   DRY( 21, 13)   DRY( 21, 14)   DRY( 21, 15)   
    DRY( 21, 16)   DRY( 21, 17)   DRY( 21, 18)   DRY( 21, 19)   DRY( 21, 20)   
    DRY( 21, 21)   DRY( 21,117)   DRY( 21,118)   DRY( 21,119)   DRY( 21,120)   
    DRY( 21,121)   DRY( 21,122)   DRY( 21,123)   DRY( 21,124)   DRY( 21,125)   
    DRY( 21,126)   DRY( 21,127)   DRY( 21,128)   DRY( 21,129)   DRY( 21,130)   
    DRY( 21,131)   DRY( 21,132)   DRY( 21,133)   DRY( 21,134)   DRY( 21,135)   
    DRY( 21,136)   DRY( 21,137)   DRY( 21,138)   DRY( 21,139)   DRY( 21,140)   
    DRY( 21,141)   DRY( 21,142)   DRY( 21,143)   DRY( 21,144)   DRY( 21,145)   
    DRY( 21,146)   DRY( 21,147)   DRY( 21,148)   DRY( 21,149)   DRY( 21,160)   
    DRY( 21,161)   DRY( 21,162)   DRY( 21,163)   DRY( 21,164)   DRY( 21,165)   
    DRY( 21,166)   DRY( 21,167)   DRY( 21,168)   DRY( 21,169)   DRY( 21,170)   
    DRY( 21,201)   DRY( 21,202)   DRY( 21,203)   DRY( 22,  1)   DRY( 22,  2)   
    DRY( 22,  3)   DRY( 22,  4)   DRY( 22,  5)   DRY( 22,  6)   DRY( 22,  7)   
    DRY( 22,  8)   DRY( 22,  9)   DRY( 22, 10)   DRY( 22, 11)   DRY( 22, 12)   
    DRY( 22, 13)   DRY( 22, 14)   DRY( 22, 15)   DRY( 22, 16)   DRY( 22, 17)   
    DRY( 22, 18)   DRY( 22, 19)   DRY( 22, 20)   DRY( 22, 21)   DRY( 22, 22)   
    DRY( 22, 23)   DRY( 22, 24)   DRY( 22, 25)   DRY( 22, 26)   DRY( 22, 27)   
    DRY( 22, 28)   DRY( 22, 29)   DRY( 22, 30)   DRY( 22, 31)   DRY( 22, 32)   
    DRY( 22, 33)   DRY( 22, 34)   DRY( 22, 35)   DRY( 22, 36)   DRY( 22, 37)   
    DRY( 22, 38)   DRY( 22, 39)   DRY( 22, 40)   DRY( 22, 41)   DRY( 22, 42)   
    DRY( 22, 43)   DRY( 22, 44)   DRY( 22, 45)   DRY( 22, 46)   DRY( 22, 47)   
    DRY( 22, 48)   DRY( 22, 49)   DRY( 22, 50)   DRY( 22, 51)   DRY( 22, 52)   
    DRY( 22, 53)   DRY( 22, 54)   DRY( 22, 55)   DRY( 22, 56)   DRY( 22, 57)   
    DRY( 22, 58)   DRY( 22, 59)   DRY( 22, 60)   DRY( 22, 61)   DRY( 22, 62)   
    DRY( 22, 63)   DRY( 22, 64)   DRY( 22, 65)   DRY( 22, 66)   DRY( 22, 67)   
    DRY( 22, 68)   DRY( 22, 69)   DRY( 22, 70)   DRY( 22, 71)   DRY( 22, 72)   
    DRY( 22, 73)   DRY( 22, 74)   DRY( 22, 75)   DRY( 22, 76)   DRY( 22, 77)   
    DRY( 22, 78)   DRY( 22, 79)   DRY( 22, 80)   DRY( 22, 81)   DRY( 22, 82)   
    DRY( 22, 83)   DRY( 22, 84)   DRY( 22, 85)   DRY( 22, 86)   DRY( 22, 87)   
    DRY( 22, 88)   DRY( 22, 89)   DRY( 22, 90)   DRY( 22, 91)   DRY( 22, 92)   
    DRY( 22, 93)   DRY( 22, 94)   DRY( 22, 95)   DRY( 22, 96)   DRY( 22, 97)   
    DRY( 22, 98)   DRY( 22, 99)   DRY( 22,100)   DRY( 22,101)   DRY( 22,102)   
    DRY( 22,103)   DRY( 22,104)   DRY( 22,105)   DRY( 22,106)   DRY( 22,107)   
    DRY( 22,108)   DRY( 22,109)   DRY( 22,110)   DRY( 22,111)   DRY( 22,112)   
    DRY( 22,113)   DRY( 22,114)   DRY( 22,115)   DRY( 22,116)   DRY( 22,117)   
    DRY( 22,118)   DRY( 22,119)   DRY( 22,120)   DRY( 22,121)   DRY( 22,122)   
    DRY( 22,123)   DRY( 22,124)   DRY( 22,125)   DRY( 22,126)   DRY( 22,127)   
    DRY( 22,128)   DRY( 22,129)   DRY( 22,130)   DRY( 22,131)   DRY( 22,132)   
    DRY( 22,133)   DRY( 22,134)   DRY( 22,135)   DRY( 22,136)   DRY( 22,137)   
    DRY( 22,138)   DRY( 22,139)   DRY( 22,140)   DRY( 22,141)   DRY( 22,142)   
    DRY( 22,143)   DRY( 22,144)   DRY( 22,145)   DRY( 22,146)   DRY( 22,147)   
    DRY( 22,148)   DRY( 22,149)   DRY( 22,150)   DRY( 22,151)   DRY( 22,152)   
    DRY( 22,153)   DRY( 22,154)   DRY( 22,155)   DRY( 22,156)   DRY( 22,157)   
    DRY( 22,158)   DRY( 22,159)   DRY( 22,160)   DRY( 22,161)   DRY( 22,162)   
    DRY( 22,163)   DRY( 22,164)   DRY( 22,165)   DRY( 22,166)   DRY( 22,167)   
    DRY( 22,168)   DRY( 22,169)   DRY( 22,170)   DRY( 22,171)   DRY( 22,172)   
    DRY( 22,173)   DRY( 22,174)   DRY( 22,175)   DRY( 22,176)   DRY( 22,177)   
    DRY( 22,178)   DRY( 22,179)   DRY( 22,180)   DRY( 22,181)   DRY( 22,182)   
    DRY( 22,183)   DRY( 22,184)   DRY( 22,185)   DRY( 22,186)   DRY( 22,187)   
    DRY( 22,188)   DRY( 22,189)   DRY( 22,190)   DRY( 22,191)   DRY( 22,192)   
    DRY( 22,193)   DRY( 22,194)   DRY( 22,195)   DRY( 22,196)   DRY( 22,197)   
    DRY( 22,198)   DRY( 22,199)   DRY( 22,200)   DRY( 22,201)   DRY( 22,202)   
    DRY( 22,203)   DRY( 22,204)   DRY( 22,205)   DRY( 22,206)   DRY( 22,207)   
    DRY( 22,208)   DRY( 22,209)   DRY( 22,210)   DRY( 22,211)   DRY( 22,212)   
    DRY( 22,213)   DRY( 22,214)   DRY( 22,215)   DRY( 22,216)   DRY( 22,217)   
    DRY( 22,218)   DRY( 22,219)   DRY( 22,220)   DRY( 23,  1)   DRY( 23,  2)   
    DRY( 23,  3)   DRY( 23,  4)   DRY( 23,  5)   DRY( 23,  6)   DRY( 23,  7)   
    DRY( 23,  8)   DRY( 23,  9)   DRY( 23, 10)   DRY( 23, 11)   DRY( 23, 12)   
    DRY( 23, 13)   DRY( 23, 14)   DRY( 23, 15)   DRY( 23, 16)   DRY( 23, 17)   
    DRY( 23, 18)   DRY( 23, 19)   DRY( 23, 20)   DRY( 23, 21)   DRY( 23, 22)   
    DRY( 23, 23)   DRY( 23, 24)   DRY( 23, 25)   DRY( 23, 26)   DRY( 23, 27)   
    DRY( 23, 28)   DRY( 23, 29)   DRY( 23, 30)   DRY( 23, 31)   DRY( 23, 32)   
    DRY( 23, 33)   DRY( 23, 34)   DRY( 23, 35)   DRY( 23, 36)   DRY( 23, 37)   
    DRY( 23, 38)   DRY( 23, 39)   DRY( 23, 40)   DRY( 23, 41)   DRY( 23, 42)   
    DRY( 23, 43)   DRY( 23, 44)   DRY( 23, 45)   DRY( 23, 46)   DRY( 23, 47)   
    DRY( 23, 48)   DRY( 23, 49)   DRY( 23, 50)   DRY( 23, 51)   DRY( 23, 52)   
    DRY( 23, 53)   DRY( 23, 54)   DRY( 23, 55)   DRY( 23, 56)   DRY( 23, 57)   
    DRY( 23, 58)   DRY( 23, 59)   DRY( 23, 60)   DRY( 23, 61)   DRY( 23, 62)   
    DRY( 23, 63)   DRY( 23, 64)   DRY( 23, 65)   DRY( 23, 66)   DRY( 23, 67)   
    DRY( 23, 68)   DRY( 23, 69)   DRY( 23, 70)   DRY( 23, 71)   DRY( 23, 72)   
    DRY( 23, 73)   DRY( 23, 74)   DRY( 23, 75)   DRY( 23, 76)   DRY( 23, 77)   
    DRY( 23, 78)   DRY( 23, 79)   DRY( 23, 80)   DRY( 23, 81)   DRY( 23, 82)   
    DRY( 23, 83)   DRY( 23, 84)   DRY( 23, 85)   DRY( 23, 86)   DRY( 23, 87)   
    DRY( 23, 88)   DRY( 23, 89)   DRY( 23, 90)   DRY( 23, 91)   DRY( 23, 92)   
    DRY( 23, 93)   DRY( 23, 94)   DRY( 23, 95)   DRY( 23, 96)   DRY( 23, 97)   
    DRY( 23, 98)   DRY( 23, 99)   DRY( 23,100)   DRY( 23,101)   DRY( 23,102)   
    DRY( 23,103)   DRY( 23,104)   DRY( 23,105)   DRY( 23,106)   DRY( 23,107)   
    DRY( 23,108)   DRY( 23,109)   DRY( 23,110)   DRY( 23,111)   DRY( 23,112)   
    DRY( 23,113)   DRY( 23,114)   DRY( 23,115)   DRY( 23,116)   DRY( 23,117)   
    DRY( 23,118)   DRY( 23,119)   DRY( 23,120)   DRY( 23,121)   DRY( 23,122)   
    DRY( 23,123)   DRY( 23,124)   DRY( 23,125)   DRY( 23,126)   DRY( 23,127)   
    DRY( 23,128)   DRY( 23,129)   DRY( 23,130)   DRY( 23,131)   DRY( 23,132)   
    DRY( 23,133)   DRY( 23,134)   DRY( 23,135)   DRY( 23,136)   DRY( 23,137)   
    DRY( 23,138)   DRY( 23,139)   DRY( 23,140)   DRY( 23,141)   DRY( 23,142)   
    DRY( 23,143)   DRY( 23,144)   DRY( 23,145)   DRY( 23,146)   DRY( 23,147)   
    DRY( 23,148)   DRY( 23,149)   DRY( 23,150)   DRY( 23,151)   DRY( 23,152)   
    DRY( 23,153)   DRY( 23,154)   DRY( 23,155)   DRY( 23,156)   DRY( 23,157)   
    DRY( 23,158)   DRY( 23,159)   DRY( 23,160)   DRY( 23,161)   DRY( 23,162)   
    DRY( 23,163)   DRY( 23,164)   DRY( 23,165)   DRY( 23,166)   DRY( 23,167)   
    DRY( 23,168)   DRY( 23,169)   DRY( 23,170)   DRY( 23,171)   DRY( 23,172)   
    DRY( 23,173)   DRY( 23,174)   DRY( 23,175)   DRY( 23,176)   DRY( 23,177)   
    DRY( 23,178)   DRY( 23,179)   DRY( 23,180)   DRY( 23,181)   DRY( 23,182)   
    DRY( 23,183)   DRY( 23,184)   DRY( 23,185)   DRY( 23,186)   DRY( 23,187)   
    DRY( 23,188)   DRY( 23,189)   DRY( 23,190)   DRY( 23,191)   DRY( 23,192)   
    DRY( 23,193)   DRY( 23,194)   DRY( 23,195)   DRY( 23,196)   DRY( 23,197)   
    DRY( 23,198)   DRY( 23,199)   DRY( 23,200)   DRY( 23,201)   DRY( 23,202)   
    DRY( 23,203)   DRY( 23,204)   DRY( 23,205)   DRY( 23,206)   DRY( 23,207)   
    DRY( 23,208)   DRY( 23,209)   DRY( 23,210)   DRY( 23,211)   DRY( 23,212)   
    DRY( 23,213)   DRY( 23,214)   DRY( 23,215)   DRY( 23,216)   DRY( 23,217)   
    DRY( 23,218)   DRY( 23,219)   DRY( 23,220)   DRY( 24,  1)   DRY( 24,  2)   
    DRY( 24,  3)   DRY( 24,  4)   DRY( 24,  5)   DRY( 24,  6)   DRY( 24,  7)   
    DRY( 24,  8)   DRY( 24,  9)   DRY( 24, 10)   DRY( 24, 11)   DRY( 24, 12)   
    DRY( 24, 13)   DRY( 24, 14)   DRY( 24, 15)   DRY( 24, 16)   DRY( 24, 17)   
    DRY( 24, 18)   DRY( 24, 19)   DRY( 24, 20)   DRY( 24, 21)   DRY( 24, 22)   
    DRY( 24, 23)   DRY( 24, 24)   DRY( 24, 25)   DRY( 24, 26)   DRY( 24, 27)   
    DRY( 24, 28)   DRY( 24, 29)   DRY( 24, 30)   DRY( 24, 31)   DRY( 24, 32)   
    DRY( 24, 33)   DRY( 24, 34)   DRY( 24, 35)   DRY( 24, 36)   DRY( 24, 37)   
    DRY( 24, 38)   DRY( 24, 39)   DRY( 24, 40)   DRY( 24, 41)   DRY( 24, 42)   
    DRY( 24, 43)   DRY( 24, 44)   DRY( 24, 45)   DRY( 24, 46)   DRY( 24, 47)   
    DRY( 24, 48)   DRY( 24, 49)   DRY( 24, 50)   DRY( 24, 51)   DRY( 24, 52)   
    DRY( 24, 53)   DRY( 24, 54)   DRY( 24, 55)   DRY( 24, 56)   DRY( 24, 57)   
    DRY( 24, 58)   DRY( 24, 59)   DRY( 24, 60)   DRY( 24, 61)   DRY( 24, 62)   
    DRY( 24, 63)   DRY( 24, 64)   DRY( 24, 65)   DRY( 24, 66)   DRY( 24, 67)   
    DRY( 24, 68)   DRY( 24, 69)   DRY( 24, 70)   DRY( 24, 71)   DRY( 24, 72)   
    DRY( 24, 73)   DRY( 24, 74)   DRY( 24, 75)   DRY( 24, 76)   DRY( 24, 77)   
    DRY( 24, 78)   DRY( 24, 79)   DRY( 24, 80)   DRY( 24, 81)   DRY( 24, 82)   
    DRY( 24, 83)   DRY( 24, 84)   DRY( 24, 85)   DRY( 24, 86)   DRY( 24, 87)   
    DRY( 24, 88)   DRY( 24, 89)   DRY( 24, 90)   DRY( 24, 91)   DRY( 24, 92)   
    DRY( 24, 93)   DRY( 24, 94)   DRY( 24, 95)   DRY( 24, 96)   DRY( 24, 97)   
    DRY( 24, 98)   DRY( 24, 99)   DRY( 24,100)   DRY( 24,101)   DRY( 24,102)   
    DRY( 24,103)   DRY( 24,104)   DRY( 24,105)   DRY( 24,106)   DRY( 24,107)   
    DRY( 24,108)   DRY( 24,109)   DRY( 24,110)   DRY( 24,111)   DRY( 24,112)   
    DRY( 24,113)   DRY( 24,114)   DRY( 24,115)   DRY( 24,116)   DRY( 24,117)   
    DRY( 24,118)   DRY( 24,119)   DRY( 24,120)   DRY( 24,121)   DRY( 24,122)   
    DRY( 24,123)   DRY( 24,124)   DRY( 24,125)   DRY( 24,126)   DRY( 24,127)   
    DRY( 24,128)   DRY( 24,129)   DRY( 24,130)   DRY( 24,131)   DRY( 24,132)   
    DRY( 24,133)   DRY( 24,134)   DRY( 24,135)   DRY( 24,136)   DRY( 24,137)   
    DRY( 24,138)   DRY( 24,139)   DRY( 24,140)   DRY( 24,141)   DRY( 24,142)   
    DRY( 24,143)   DRY( 24,144)   DRY( 24,145)   DRY( 24,146)   DRY( 24,147)   
    DRY( 24,148)   DRY( 24,149)   DRY( 24,150)   DRY( 24,151)   DRY( 24,152)   
    DRY( 24,153)   DRY( 24,154)   DRY( 24,155)   DRY( 24,156)   DRY( 24,157)   
    DRY( 24,158)   DRY( 24,159)   DRY( 24,160)   DRY( 24,161)   DRY( 24,162)   
    DRY( 24,163)   DRY( 24,164)   DRY( 24,165)   DRY( 24,166)   DRY( 24,167)   
    DRY( 24,168)   DRY( 24,169)   DRY( 24,170)   DRY( 24,171)   DRY( 24,172)   
    DRY( 24,173)   DRY( 24,174)   DRY( 24,175)   DRY( 24,176)   DRY( 24,177)   
    DRY( 24,178)   DRY( 24,179)   DRY( 24,180)   DRY( 24,181)   DRY( 24,182)   
    DRY( 24,183)   DRY( 24,184)   DRY( 24,185)   DRY( 24,186)   DRY( 24,187)   
    DRY( 24,188)   DRY( 24,189)   DRY( 24,190)   DRY( 24,191)   DRY( 24,192)   
    DRY( 24,193)   DRY( 24,194)   DRY( 24,195)   DRY( 24,196)   DRY( 24,197)   
    DRY( 24,198)   DRY( 24,199)   DRY( 24,200)   DRY( 24,201)   DRY( 24,202)   
    DRY( 24,203)   DRY( 24,204)   DRY( 24,205)   DRY( 24,206)   DRY( 24,207)   
    DRY( 24,208)   DRY( 24,209)   DRY( 24,210)   DRY( 24,211)   DRY( 24,212)   
    DRY( 24,213)   DRY( 24,214)   DRY( 24,215)   DRY( 24,216)   DRY( 24,217)   
    DRY( 24,218)   DRY( 24,219)   DRY( 24,220)   DRY( 25,  1)   DRY( 25,  2)   
    DRY( 25,  3)   DRY( 25,  4)   DRY( 25,  5)   DRY( 25,  6)   DRY( 25,  7)   
    DRY( 25,  8)   DRY( 25,  9)   DRY( 25, 10)   DRY( 25, 11)   DRY( 25, 12)   
    DRY( 25, 13)   DRY( 25, 14)   DRY( 25, 15)   DRY( 25, 16)   DRY( 25, 17)   
    DRY( 25, 18)   DRY( 25, 19)   DRY( 25, 20)   DRY( 25, 21)   DRY( 25, 22)   
    DRY( 25, 23)   DRY( 25, 24)   DRY( 25, 25)   DRY( 25, 26)   DRY( 25, 27)   
    DRY( 25, 28)   DRY( 25, 29)   DRY( 25, 30)   DRY( 25, 31)   DRY( 25, 32)   
    DRY( 25, 33)   DRY( 25, 34)   DRY( 25, 35)   DRY( 25, 36)   DRY( 25, 37)   
    DRY( 25, 38)   DRY( 25, 39)   DRY( 25, 40)   DRY( 25, 41)   DRY( 25, 42)   
    DRY( 25, 43)   DRY( 25, 44)   DRY( 25, 45)   DRY( 25, 46)   DRY( 25, 47)   
    DRY( 25, 48)   DRY( 25, 49)   DRY( 25, 50)   DRY( 25, 51)   DRY( 25, 52)   
    DRY( 25, 53)   DRY( 25, 54)   DRY( 25, 55)   DRY( 25, 56)   DRY( 25, 57)   
    DRY( 25, 58)   DRY( 25, 59)   DRY( 25, 60)   DRY( 25, 61)   DRY( 25, 62)   
    DRY( 25, 63)   DRY( 25, 64)   DRY( 25, 65)   DRY( 25, 66)   DRY( 25, 67)   
    DRY( 25, 68)   DRY( 25, 69)   DRY( 25, 70)   DRY( 25, 71)   DRY( 25, 72)   
    DRY( 25, 73)   DRY( 25, 74)   DRY( 25, 75)   DRY( 25, 76)   DRY( 25, 77)   
    DRY( 25, 78)   DRY( 25, 79)   DRY( 25, 80)   DRY( 25, 81)   DRY( 25, 82)   
    DRY( 25, 83)   DRY( 25, 84)   DRY( 25, 85)   DRY( 25, 86)   DRY( 25, 87)   
    DRY( 25, 88)   DRY( 25, 89)   DRY( 25, 90)   DRY( 25, 91)   DRY( 25, 92)   
    DRY( 25, 93)   DRY( 25, 94)   DRY( 25, 95)   DRY( 25, 96)   DRY( 25, 97)   
    DRY( 25, 98)   DRY( 25, 99)   DRY( 25,100)   DRY( 25,101)   DRY( 25,102)   
    DRY( 25,103)   DRY( 25,104)   DRY( 25,105)   DRY( 25,106)   DRY( 25,107)   
    DRY( 25,108)   DRY( 25,109)   DRY( 25,110)   DRY( 25,111)   DRY( 25,112)   
    DRY( 25,113)   DRY( 25,114)   DRY( 25,115)   DRY( 25,116)   DRY( 25,117)   
    DRY( 25,118)   DRY( 25,119)   DRY( 25,120)   DRY( 25,121)   DRY( 25,122)   
    DRY( 25,123)   DRY( 25,124)   DRY( 25,125)   DRY( 25,126)   DRY( 25,127)   
    DRY( 25,128)   DRY( 25,129)   DRY( 25,130)   DRY( 25,131)   DRY( 25,132)   
    DRY( 25,133)   DRY( 25,134)   DRY( 25,135)   DRY( 25,136)   DRY( 25,137)   
    DRY( 25,138)   DRY( 25,139)   DRY( 25,140)   DRY( 25,141)   DRY( 25,142)   
    DRY( 25,143)   DRY( 25,144)   DRY( 25,145)   DRY( 25,146)   DRY( 25,147)   
    DRY( 25,148)   DRY( 25,149)   DRY( 25,150)   DRY( 25,151)   DRY( 25,152)   
    DRY( 25,153)   DRY( 25,154)   DRY( 25,155)   DRY( 25,156)   DRY( 25,157)   
    DRY( 25,158)   DRY( 25,159)   DRY( 25,160)   DRY( 25,161)   DRY( 25,162)   
    DRY( 25,163)   DRY( 25,164)   DRY( 25,165)   DRY( 25,166)   DRY( 25,167)   
    DRY( 25,168)   DRY( 25,169)   DRY( 25,170)   DRY( 25,171)   DRY( 25,172)   
    DRY( 25,173)   DRY( 25,174)   DRY( 25,175)   DRY( 25,176)   DRY( 25,177)   
    DRY( 25,178)   DRY( 25,179)   DRY( 25,180)   DRY( 25,181)   DRY( 25,182)   
    DRY( 25,183)   DRY( 25,184)   DRY( 25,185)   DRY( 25,186)   DRY( 25,187)   
    DRY( 25,188)   DRY( 25,189)   DRY( 25,190)   DRY( 25,191)   DRY( 25,192)   
    DRY( 25,193)   DRY( 25,194)   DRY( 25,195)   DRY( 25,196)   DRY( 25,197)   
    DRY( 25,198)   DRY( 25,199)   DRY( 25,200)   DRY( 25,201)   DRY( 25,202)   
    DRY( 25,203)   DRY( 25,204)   DRY( 25,205)   DRY( 25,206)   DRY( 25,207)   
    DRY( 25,208)   DRY( 25,209)   DRY( 25,210)   DRY( 25,211)   DRY( 25,212)   
    DRY( 25,213)   DRY( 25,214)   DRY( 25,215)   DRY( 25,216)   DRY( 25,217)   
    DRY( 25,218)   DRY( 25,219)   DRY( 25,220)   DRY( 26,  2)   DRY( 26,  3)   
    DRY( 26,  4)   DRY( 26,  5)   DRY( 26,  6)   DRY( 26,  7)   DRY( 26,  8)   
    DRY( 26,  9)   DRY( 26, 10)   DRY( 26, 11)   DRY( 26, 12)   DRY( 26, 13)   
    DRY( 26, 14)   DRY( 26, 15)   DRY( 26, 16)   DRY( 26, 17)   DRY( 26, 18)   
    DRY( 26, 19)   DRY( 26, 20)   DRY( 26, 21)   DRY( 26, 22)   DRY( 26, 23)   
    DRY( 26, 24)   DRY( 26, 25)   DRY( 26, 26)   DRY( 26, 27)   DRY( 26, 28)   
    DRY( 26, 29)   DRY( 26, 30)   DRY( 26, 31)   DRY( 26, 32)   DRY( 26, 33)   
    DRY( 26, 34)   DRY( 26, 35)   DRY( 26, 36)   DRY( 26, 37)   DRY( 26, 38)   
    DRY( 26, 39)   DRY( 26, 40)   DRY( 26, 41)   DRY( 26, 42)   DRY( 26, 43)   
    DRY( 26, 44)   DRY( 26, 45)   DRY( 26, 46)   DRY( 26, 47)   DRY( 26, 48)   
    DRY( 26, 49)   DRY( 26, 50)   DRY( 26, 51)   DRY( 26, 52)   DRY( 26, 53)   
    DRY( 26, 54)   DRY( 26, 55)   DRY( 26, 56)   DRY( 26, 57)   DRY( 26, 58)   
    DRY( 26, 59)   DRY( 26, 60)   DRY( 26, 61)   DRY( 26, 62)   DRY( 26, 63)   
    DRY( 26, 64)   DRY( 26, 65)   DRY( 26, 66)   DRY( 26, 67)   DRY( 26, 68)   
    DRY( 26, 69)   DRY( 26, 70)   DRY( 26, 71)   DRY( 26, 72)   DRY( 26, 73)   
    DRY( 26, 74)   DRY( 26, 75)   DRY( 26, 76)   DRY( 26, 77)   DRY( 26, 78)   
    DRY( 26, 79)   DRY( 26, 80)   DRY( 26, 81)   DRY( 26, 82)   DRY( 26, 83)   
    DRY( 26, 84)   DRY( 26, 85)   DRY( 26, 86)   DRY( 26, 87)   DRY( 26, 88)   
    DRY( 26, 89)   DRY( 26, 90)   DRY( 26, 91)   DRY( 26, 92)   DRY( 26, 93)   
    DRY( 26, 94)   DRY( 26, 95)   DRY( 26, 96)   DRY( 26, 97)   DRY( 26, 98)   
    DRY( 26, 99)   DRY( 26,100)   DRY( 26,101)   DRY( 26,102)   DRY( 26,103)   
    DRY( 26,104)   DRY( 26,105)   DRY( 26,106)   DRY( 26,107)   DRY( 26,108)   
    DRY( 26,109)   DRY( 26,110)   DRY( 26,111)   DRY( 26,112)   DRY( 26,113)   
    DRY( 26,114)   DRY( 26,115)   DRY( 26,116)   DRY( 26,117)   DRY( 26,118)   
    DRY( 26,119)   DRY( 26,120)   DRY( 26,121)   DRY( 26,122)   DRY( 26,123)   
    DRY( 26,124)   DRY( 26,125)   DRY( 26,126)   DRY( 26,127)   DRY( 26,128)   
    DRY( 26,129)   DRY( 26,130)   DRY( 26,131)   DRY( 26,132)   DRY( 26,133)   
    DRY( 26,134)   DRY( 26,135)   DRY( 26,136)   DRY( 26,137)   DRY( 26,138)   
    DRY( 26,139)   DRY( 26,140)   DRY( 26,141)   DRY( 26,142)   DRY( 26,143)   
    DRY( 26,144)   DRY( 26,145)   DRY( 26,146)   DRY( 26,147)   DRY( 26,148)   
    DRY( 26,149)   DRY( 26,150)   DRY( 26,151)   DRY( 26,152)   DRY( 26,153)   
    DRY( 26,154)   DRY( 26,155)   DRY( 26,156)   DRY( 26,157)   DRY( 26,158)   
    DRY( 26,159)   DRY( 26,160)   DRY( 26,161)   DRY( 26,162)   DRY( 26,163)   
    DRY( 26,164)   DRY( 26,165)   DRY( 26,166)   DRY( 26,167)   DRY( 26,168)   
    DRY( 26,169)   DRY( 26,170)   DRY( 26,171)   DRY( 26,172)   DRY( 26,173)   
    DRY( 26,174)   DRY( 26,175)   DRY( 26,176)   DRY( 26,177)   DRY( 26,178)   
    DRY( 26,179)   DRY( 26,180)   DRY( 26,181)   DRY( 26,182)   DRY( 26,183)   
    DRY( 26,184)   DRY( 26,185)   DRY( 26,186)   DRY( 26,187)   DRY( 26,188)   
    DRY( 26,189)   DRY( 26,190)   DRY( 26,191)   DRY( 26,192)   DRY( 26,193)   
    DRY( 26,194)   DRY( 26,195)   DRY( 26,196)   DRY( 26,197)   DRY( 26,198)   
    DRY( 26,199)   DRY( 26,200)   DRY( 26,201)   DRY( 26,202)   DRY( 26,203)   
    DRY( 26,204)   DRY( 26,205)   DRY( 26,206)   DRY( 26,207)   DRY( 26,208)   
    DRY( 26,209)   DRY( 26,210)   DRY( 26,211)   DRY( 26,212)   DRY( 26,213)   
    DRY( 26,214)   DRY( 26,215)   DRY( 26,216)   DRY( 26,217)   DRY( 26,218)   
    DRY( 26,219)   DRY( 26,220)   DRY( 27,  4)   DRY( 27,  5)   DRY( 27,  6)   
    DRY( 27,  7)   DRY( 27,  8)   DRY( 27,  9)   DRY( 27, 10)   DRY( 27, 11)   
    DRY( 27, 12)   DRY( 27, 13)   DRY( 27, 14)   DRY( 27, 15)   DRY( 27, 16)   
    DRY( 27, 17)   DRY( 27, 18)   DRY( 27, 19)   DRY( 27, 20)   DRY( 27, 21)   
    DRY( 27, 22)   DRY( 27, 23)   DRY( 27, 24)   DRY( 27, 25)   DRY( 27, 26)   
    DRY( 27, 27)   DRY( 27, 28)   DRY( 27, 29)   DRY( 27, 30)   DRY( 27, 31)   
    DRY( 27, 32)   DRY( 27, 33)   DRY( 27, 34)   DRY( 27, 35)   DRY( 27, 36)   
    DRY( 27, 37)   DRY( 27, 38)   DRY( 27, 39)   DRY( 27, 40)   DRY( 27, 41)   
    DRY( 27, 42)   DRY( 27, 43)   DRY( 27, 44)   DRY( 27, 45)   DRY( 27, 46)   
    DRY( 27, 47)   DRY( 27, 48)   DRY( 27, 49)   DRY( 27, 50)   DRY( 27, 51)   
    DRY( 27, 52)   DRY( 27, 53)   DRY( 27, 54)   DRY( 27, 55)   DRY( 27, 56)   
    DRY( 27, 57)   DRY( 27, 58)   DRY( 27, 59)   DRY( 27, 60)   DRY( 27, 61)   
    DRY( 27, 62)   DRY( 27, 63)   DRY( 27, 64)   DRY( 27, 65)   DRY( 27, 66)   
    DRY( 27, 67)   DRY( 27, 68)   DRY( 27, 69)   DRY( 27, 70)   DRY( 27, 71)   
    DRY( 27, 72)   DRY( 27, 73)   DRY( 27, 74)   DRY( 27, 75)   DRY( 27, 76)   
    DRY( 27, 77)   DRY( 27, 78)   DRY( 27, 79)   DRY( 27, 80)   DRY( 27, 81)   
    DRY( 27, 82)   DRY( 27, 83)   DRY( 27, 84)   DRY( 27, 85)   DRY( 27, 86)   
    DRY( 27, 87)   DRY( 27, 88)   DRY( 27, 89)   DRY( 27, 90)   DRY( 27, 91)   
    DRY( 27, 92)   DRY( 27, 93)   DRY( 27, 94)   DRY( 27, 95)   DRY( 27, 96)   
    DRY( 27, 97)   DRY( 27, 98)   DRY( 27, 99)   DRY( 27,100)   DRY( 27,101)   
    DRY( 27,102)   DRY( 27,103)   DRY( 27,104)   DRY( 27,105)   DRY( 27,106)   
    DRY( 27,107)   DRY( 27,108)   DRY( 27,109)   DRY( 27,110)   DRY( 27,111)   
    DRY( 27,112)   DRY( 27,113)   DRY( 27,114)   DRY( 27,115)   DRY( 27,116)   
    DRY( 27,117)   DRY( 27,118)   DRY( 27,119)   DRY( 27,120)   DRY( 27,121)   
    DRY( 27,122)   DRY( 27,123)   DRY( 27,124)   DRY( 27,125)   DRY( 27,126)   
    DRY( 27,127)   DRY( 27,128)   DRY( 27,129)   DRY( 27,130)   DRY( 27,131)   
    DRY( 27,132)   DRY( 27,133)   DRY( 27,134)   DRY( 27,135)   DRY( 27,136)   
    DRY( 27,137)   DRY( 27,138)   DRY( 27,139)   DRY( 27,140)   DRY( 27,141)   
    DRY( 27,142)   DRY( 27,143)   DRY( 27,144)   DRY( 27,145)   DRY( 27,146)   
    DRY( 27,147)   DRY( 27,148)   DRY( 27,149)   DRY( 27,150)   DRY( 27,151)   
    DRY( 27,152)   DRY( 27,153)   DRY( 27,154)   DRY( 27,155)   DRY( 27,156)   
    DRY( 27,157)   DRY( 27,158)   DRY( 27,159)   DRY( 27,160)   DRY( 27,161)   
    DRY( 27,162)   DRY( 27,163)   DRY( 27,164)   DRY( 27,165)   DRY( 27,166)   
    DRY( 27,167)   DRY( 27,168)   DRY( 27,169)   DRY( 27,170)   DRY( 27,171)   
    DRY( 27,172)   DRY( 27,173)   DRY( 27,174)   DRY( 27,175)   DRY( 27,176)   
    DRY( 27,177)   DRY( 27,178)   DRY( 27,179)   DRY( 27,180)   DRY( 27,181)   
    DRY( 27,182)   DRY( 27,183)   DRY( 27,184)   DRY( 27,185)   DRY( 27,186)   
    DRY( 27,187)   DRY( 27,188)   DRY( 27,189)   DRY( 27,190)   DRY( 27,191)   
    DRY( 27,192)   DRY( 27,193)   DRY( 27,194)   DRY( 27,195)   DRY( 27,196)   
    DRY( 27,197)   DRY( 27,198)   DRY( 27,199)   DRY( 27,200)   DRY( 27,201)   
    DRY( 27,202)   DRY( 27,203)   DRY( 27,204)   DRY( 27,205)   DRY( 27,206)   
    DRY( 27,207)   DRY( 27,208)   DRY( 27,209)   DRY( 27,210)   DRY( 27,211)   
    DRY( 27,212)   DRY( 27,213)   DRY( 27,214)   DRY( 27,215)   DRY( 27,216)   
    DRY( 27,217)   DRY( 27,218)   DRY( 27,219)   DRY( 27,220)   DRY( 28,  7)   
    DRY( 28,  8)   DRY( 28,  9)   DRY( 28, 10)   DRY( 28, 11)   DRY( 28, 12)   
    DRY( 28, 13)   DRY( 28, 14)   DRY( 28, 15)   DRY( 28, 16)   DRY( 28, 17)   
    DRY( 28, 18)   DRY( 28, 19)   DRY( 28, 20)   DRY( 28, 21)   DRY( 28, 22)   
    DRY( 28, 23)   DRY( 28, 24)   DRY( 28, 25)   DRY( 28, 26)   DRY( 28, 27)   
    DRY( 28, 28)   DRY( 28, 29)   DRY( 28, 30)   DRY( 28, 31)   DRY( 28, 32)   
    DRY( 28, 33)   DRY( 28, 34)   DRY( 28, 35)   DRY( 28, 36)   DRY( 28, 37)   
    DRY( 28, 38)   DRY( 28, 39)   DRY( 28, 40)   DRY( 28, 41)   DRY( 28, 42)   
    DRY( 28, 43)   DRY( 28, 44)   DRY( 28, 45)   DRY( 28, 46)   DRY( 28, 47)   
    DRY( 28, 48)   DRY( 28, 49)   DRY( 28, 50)   DRY( 28, 51)   DRY( 28, 52)   
    DRY( 28, 53)   DRY( 28, 54)   DRY( 28, 55)   DRY( 28, 56)   DRY( 28, 57)   
    DRY( 28, 58)   DRY( 28, 59)   DRY( 28, 60)   DRY( 28, 61)   DRY( 28, 62)   
    DRY( 28, 63)   DRY( 28, 64)   DRY( 28, 65)   DRY( 28, 66)   DRY( 28, 67)   
    DRY( 28, 68)   DRY( 28, 69)   DRY( 28, 70)   DRY( 28, 71)   DRY( 28, 72)   
    DRY( 28, 73)   DRY( 28, 74)   DRY( 28, 75)   DRY( 28, 76)   DRY( 28, 77)   
    DRY( 28, 78)   DRY( 28, 79)   DRY( 28, 80)   DRY( 28, 81)   DRY( 28, 82)   
    DRY( 28, 83)   DRY( 28, 84)   DRY( 28, 85)   DRY( 28, 86)   DRY( 28, 87)   
    DRY( 28, 88)   DRY( 28, 89)   DRY( 28, 90)   DRY( 28, 91)   DRY( 28, 92)   
    DRY( 28, 93)   DRY( 28, 94)   DRY( 28, 95)   DRY( 28, 96)   DRY( 28, 97)   
    DRY( 28, 98)   DRY( 28, 99)   DRY( 28,100)   DRY( 28,101)   DRY( 28,102)   
    DRY( 28,103)   DRY( 28,104)   DRY( 28,105)   DRY( 28,106)   DRY( 28,107)   
    DRY( 28,108)   DRY( 28,109)   DRY( 28,110)   DRY( 28,111)   DRY( 28,112)   
    DRY( 28,113)   DRY( 28,114)   DRY( 28,115)   DRY( 28,116)   DRY( 28,117)   
    DRY( 28,118)   DRY( 28,119)   DRY( 28,120)   DRY( 28,121)   DRY( 28,122)   
    DRY( 28,123)   DRY( 28,124)   DRY( 28,125)   DRY( 28,126)   DRY( 28,127)   
    DRY( 28,128)   DRY( 28,129)   DRY( 28,130)   DRY( 28,131)   DRY( 28,132)   
    DRY( 28,133)   DRY( 28,134)   DRY( 28,135)   DRY( 28,136)   DRY( 28,137)   
    DRY( 28,138)   DRY( 28,139)   DRY( 28,140)   DRY( 28,141)   DRY( 28,142)   
    DRY( 28,143)   DRY( 28,144)   DRY( 28,145)   DRY( 28,146)   DRY( 28,147)   
    DRY( 28,148)   DRY( 28,149)   DRY( 28,150)   DRY( 28,151)   DRY( 28,152)   
    DRY( 28,153)   DRY( 28,154)   DRY( 28,155)   DRY( 28,156)   DRY( 28,157)   
    DRY( 28,158)   DRY( 28,159)   DRY( 28,160)   DRY( 28,161)   DRY( 28,162)   
    DRY( 28,163)   DRY( 28,164)   DRY( 28,165)   DRY( 28,166)   DRY( 28,167)   
    DRY( 28,168)   DRY( 28,169)   DRY( 28,170)   DRY( 28,171)   DRY( 28,172)   
    DRY( 28,173)   DRY( 28,174)   DRY( 28,175)   DRY( 28,176)   DRY( 28,177)   
    DRY( 28,178)   DRY( 28,179)   DRY( 28,180)   DRY( 28,181)   DRY( 28,182)   
    DRY( 28,183)   DRY( 28,184)   DRY( 28,185)   DRY( 28,186)   DRY( 28,187)   
    DRY( 28,188)   DRY( 28,189)   DRY( 28,190)   DRY( 28,191)   DRY( 28,192)   
    DRY( 28,193)   DRY( 28,194)   DRY( 28,195)   DRY( 28,196)   DRY( 28,197)   
    DRY( 28,198)   DRY( 28,199)   DRY( 28,200)   DRY( 28,201)   DRY( 28,202)   
    DRY( 28,203)   DRY( 28,204)   DRY( 28,205)   DRY( 28,206)   DRY( 28,207)   
    DRY( 28,208)   DRY( 28,209)   DRY( 28,210)   DRY( 28,211)   DRY( 28,212)   
    DRY( 28,213)   DRY( 28,214)   DRY( 28,215)   DRY( 28,216)   DRY( 28,217)   
    DRY( 28,218)   DRY( 28,219)   DRY( 28,220)   DRY( 29, 15)   DRY( 29, 16)   
    DRY( 29, 17)   DRY( 29, 18)   DRY( 29, 19)   DRY( 29, 20)   DRY( 29, 21)   
    DRY( 29, 22)   DRY( 29, 23)   DRY( 29, 24)   DRY( 29, 25)   DRY( 29, 26)   
    DRY( 29, 27)   DRY( 29, 32)   DRY( 29, 33)   DRY( 29, 34)   DRY( 29, 35)   
    DRY( 29, 36)   DRY( 29, 37)   DRY( 29, 38)   DRY( 29, 39)   DRY( 29, 40)   
    DRY( 29, 41)   DRY( 29, 42)   DRY( 29, 43)   DRY( 29, 44)   DRY( 29, 45)   
    DRY( 29, 46)   DRY( 29, 47)   DRY( 29, 48)   DRY( 29, 49)   DRY( 29, 50)   
    DRY( 29, 51)   DRY( 29, 52)   DRY( 29, 53)   DRY( 29, 54)   DRY( 29, 55)   
    DRY( 29, 56)   DRY( 29, 57)   DRY( 29, 58)   DRY( 29, 59)   DRY( 29, 60)   
    DRY( 29, 61)   DRY( 29, 62)   DRY( 29, 63)   DRY( 29, 64)   DRY( 29, 65)   
    DRY( 29, 66)   DRY( 29, 67)   DRY( 29, 68)   DRY( 29, 69)   DRY( 29, 70)   
    DRY( 29, 71)   DRY( 29, 72)   DRY( 29, 73)   DRY( 29, 74)   DRY( 29, 75)   
    DRY( 29, 76)   DRY( 29, 77)   DRY( 29, 78)   DRY( 29, 79)   DRY( 29, 80)   
    DRY( 29, 81)   DRY( 29, 82)   DRY( 29, 83)   DRY( 29, 84)   DRY( 29, 85)   
    DRY( 29, 86)   DRY( 29, 87)   DRY( 29, 88)   DRY( 29, 89)   DRY( 29, 90)   
    DRY( 29, 91)   DRY( 29, 92)   DRY( 29, 93)   DRY( 29, 94)   DRY( 29, 95)   
    DRY( 29, 96)   DRY( 29, 97)   DRY( 29, 98)   DRY( 29, 99)   DRY( 29,100)   
    DRY( 29,101)   DRY( 29,102)   DRY( 29,103)   DRY( 29,104)   DRY( 29,105)   
    DRY( 29,106)   DRY( 29,107)   DRY( 29,108)   DRY( 29,109)   DRY( 29,110)   
    DRY( 29,111)   DRY( 29,112)   DRY( 29,113)   DRY( 29,114)   DRY( 29,115)   
    DRY( 29,116)   DRY( 29,117)   DRY( 29,118)   DRY( 29,119)   DRY( 29,120)   
    DRY( 29,121)   DRY( 29,122)   DRY( 29,123)   DRY( 29,124)   DRY( 29,125)   
    DRY( 29,126)   DRY( 29,127)   DRY( 29,128)   DRY( 29,129)   DRY( 29,130)   
    DRY( 29,131)   DRY( 29,132)   DRY( 29,133)   DRY( 29,134)   DRY( 29,135)   
    DRY( 29,136)   DRY( 29,137)   DRY( 29,138)   DRY( 29,139)   DRY( 29,140)   
    DRY( 29,141)   DRY( 29,142)   DRY( 29,143)   DRY( 29,144)   DRY( 29,145)   
    DRY( 29,146)   DRY( 29,147)   DRY( 29,148)   DRY( 29,149)   DRY( 29,150)   
    DRY( 29,151)   DRY( 29,152)   DRY( 29,153)   DRY( 29,154)   DRY( 29,155)   
    DRY( 29,156)   DRY( 29,157)   DRY( 29,158)   DRY( 29,159)   DRY( 29,160)   
    DRY( 29,161)   DRY( 29,162)   DRY( 29,163)   DRY( 29,164)   DRY( 29,165)   
    DRY( 29,166)   DRY( 29,167)   DRY( 29,168)   DRY( 29,169)   DRY( 29,170)   
    DRY( 29,171)   DRY( 29,172)   DRY( 29,173)   DRY( 29,174)   DRY( 29,175)   
    DRY( 29,176)   DRY( 29,177)   DRY( 29,178)   DRY( 29,179)   DRY( 29,180)   
    DRY( 29,181)   DRY( 29,182)   DRY( 29,183)   DRY( 29,184)   DRY( 29,185)   
    DRY( 29,186)   DRY( 29,187)   DRY( 29,188)   DRY( 29,189)   DRY( 29,190)   
    DRY( 29,191)   DRY( 29,192)   DRY( 29,193)   DRY( 29,194)   DRY( 29,195)   
    DRY( 29,196)   DRY( 29,197)   DRY( 29,198)   DRY( 29,199)   DRY( 29,200)   
    DRY( 29,201)   DRY( 29,202)   DRY( 29,203)   DRY( 29,204)   DRY( 29,205)   
    DRY( 29,206)   DRY( 29,207)   DRY( 29,208)   DRY( 29,209)   DRY( 29,210)   
    DRY( 29,211)   DRY( 29,212)   DRY( 29,213)   DRY( 29,214)   DRY( 29,215)   
    DRY( 29,216)   DRY( 29,217)   DRY( 29,218)   DRY( 29,219)   DRY( 29,220)   
    DRY( 30, 46)   DRY( 30, 47)   DRY( 30, 48)   DRY( 30, 49)   DRY( 30, 50)   
    DRY( 30, 51)   DRY( 30, 52)   DRY( 30, 53)   DRY( 30, 54)   DRY( 30, 55)   
    DRY( 30, 56)   DRY( 30, 57)   DRY( 30, 58)   DRY( 30, 59)   DRY( 30, 60)   
    DRY( 30, 61)   DRY( 30, 62)   DRY( 30, 63)   DRY( 30, 64)   DRY( 30, 65)   
    DRY( 30, 66)   DRY( 30, 67)   DRY( 30, 68)   DRY( 30, 69)   DRY( 30, 70)   
    DRY( 30, 71)   DRY( 30, 72)   DRY( 30, 73)   DRY( 30, 74)   DRY( 30, 75)   
    DRY( 30, 76)   DRY( 30, 77)   DRY( 30, 78)   DRY( 30, 79)   DRY( 30, 80)   
    DRY( 30, 81)   DRY( 30, 82)   DRY( 30, 83)   DRY( 30, 84)   DRY( 30, 85)   
    DRY( 30, 86)   DRY( 30, 87)   DRY( 30, 88)   DRY( 30, 89)   DRY( 30, 90)   
    DRY( 30, 91)   DRY( 30, 92)   DRY( 30, 93)   DRY( 30, 94)   DRY( 30, 95)   
    DRY( 30, 96)   DRY( 30, 97)   DRY( 30, 98)   DRY( 30, 99)   DRY( 30,100)   
    DRY( 30,101)   DRY( 30,102)   DRY( 30,103)   DRY( 30,104)   DRY( 30,105)   
    DRY( 30,106)   DRY( 30,107)   DRY( 30,108)   DRY( 30,109)   DRY( 30,110)   
    DRY( 30,111)   DRY( 30,112)   DRY( 30,113)   DRY( 30,114)   DRY( 30,115)   
    DRY( 30,116)   DRY( 30,117)   DRY( 30,118)   DRY( 30,119)   DRY( 30,120)   
    DRY( 30,121)   DRY( 30,122)   DRY( 30,123)   DRY( 30,124)   DRY( 30,125)   
    DRY( 30,126)   DRY( 30,127)   DRY( 30,128)   DRY( 30,129)   DRY( 30,130)   
    DRY( 30,131)   DRY( 30,132)   DRY( 30,133)   DRY( 30,134)   DRY( 30,135)   
    DRY( 30,136)   DRY( 30,137)   DRY( 30,138)   DRY( 30,139)   DRY( 30,140)   
    DRY( 30,141)   DRY( 30,142)   DRY( 30,143)   DRY( 30,144)   DRY( 30,145)   
    DRY( 30,146)   DRY( 30,147)   DRY( 30,148)   DRY( 30,149)   DRY( 30,150)   
    DRY( 30,151)   DRY( 30,152)   DRY( 30,153)   DRY( 30,154)   DRY( 30,155)   
    DRY( 30,156)   DRY( 30,157)   DRY( 30,158)   DRY( 30,159)   DRY( 30,160)   
    DRY( 30,161)   DRY( 30,162)   DRY( 30,163)   DRY( 30,164)   DRY( 30,165)   
    DRY( 30,166)   DRY( 30,167)   DRY( 30,168)   DRY( 30,169)   DRY( 30,170)   
    DRY( 30,171)   DRY( 30,172)   DRY( 30,173)   DRY( 30,174)   DRY( 30,175)   
    DRY( 30,176)   DRY( 30,177)   DRY( 30,178)   DRY( 30,179)   DRY( 30,180)   
    DRY( 30,181)   DRY( 30,182)   DRY( 30,183)   DRY( 30,184)   DRY( 30,185)   
    DRY( 30,186)   DRY( 30,187)   DRY( 30,188)   DRY( 30,189)   DRY( 30,190)   
    DRY( 30,191)   DRY( 30,192)   DRY( 30,193)   DRY( 30,194)   DRY( 30,195)   
    DRY( 30,196)   DRY( 30,197)   DRY( 30,198)   DRY( 30,199)   DRY( 30,200)   
    DRY( 30,201)   DRY( 30,202)   DRY( 30,203)   DRY( 30,204)   DRY( 30,205)   
    DRY( 30,206)   DRY( 30,207)   DRY( 30,208)   DRY( 30,209)   DRY( 30,210)   
    DRY( 30,211)   DRY( 30,212)   DRY( 30,213)   DRY( 30,214)   DRY( 30,215)   
    DRY( 30,216)   DRY( 30,217)   DRY( 30,218)   DRY( 30,219)   DRY( 30,220)   
    DRY( 31, 55)   DRY( 31, 56)   DRY( 31, 57)   DRY( 31, 58)   DRY( 31, 59)   
    DRY( 31, 60)   DRY( 31, 61)   DRY( 31, 62)   DRY( 31, 63)   DRY( 31, 64)   
    DRY( 31,110)   DRY( 31,111)   DRY( 31,112)   DRY( 31,113)   DRY( 31,114)   
    DRY( 31,115)   DRY( 31,116)   DRY( 31,117)   DRY( 31,118)   DRY( 31,119)   
    DRY( 31,120)   DRY( 31,121)   DRY( 31,122)   DRY( 31,123)   DRY( 31,124)   
    DRY( 31,125)   DRY( 31,126)   DRY( 31,127)   DRY( 31,128)   DRY( 31,129)   
    DRY( 31,130)   DRY( 31,131)   DRY( 31,132)   DRY( 31,133)   DRY( 31,134)   
    DRY( 31,135)   DRY( 31,136)   DRY( 31,137)   DRY( 31,138)   DRY( 31,139)   
    DRY( 31,140)   DRY( 31,141)   DRY( 31,142)   DRY( 31,143)   DRY( 31,144)   
    DRY( 31,145)   DRY( 31,146)   DRY( 31,147)   DRY( 31,148)   DRY( 31,149)   
    DRY( 31,150)   DRY( 31,151)   DRY( 31,152)   DRY( 31,153)   DRY( 31,154)   
    DRY( 31,155)   DRY( 31,156)   DRY( 31,157)   DRY( 31,158)   DRY( 31,159)   
    DRY( 31,160)   DRY( 31,161)   DRY( 31,162)   DRY( 31,163)   DRY( 31,164)   
    DRY( 31,165)   DRY( 31,166)   DRY( 31,167)   DRY( 31,168)   DRY( 31,169)   
    DRY( 31,170)   DRY( 31,171)   DRY( 31,172)   DRY( 31,173)   DRY( 31,174)   
    DRY( 31,175)   DRY( 31,176)   DRY( 31,177)   DRY( 31,178)   DRY( 31,179)   
    DRY( 31,180)   DRY( 31,181)   DRY( 31,182)   DRY( 31,183)   DRY( 31,184)   
    DRY( 31,185)   DRY( 31,186)   DRY( 31,187)   DRY( 31,188)   DRY( 31,189)   
    DRY( 31,190)   DRY( 31,191)   DRY( 31,192)   DRY( 31,193)   DRY( 31,194)   
    DRY( 31,195)   DRY( 31,196)   DRY( 31,197)   DRY( 31,198)   DRY( 31,199)   
    DRY( 31,200)   DRY( 31,201)   DRY( 31,202)   DRY( 31,203)   DRY( 31,204)   
    DRY( 31,205)   DRY( 31,206)   DRY( 31,207)   DRY( 31,208)   DRY( 31,209)   
    DRY( 31,210)   DRY( 31,211)   DRY( 31,212)   DRY( 31,213)   DRY( 31,214)   
    DRY( 31,215)   DRY( 31,216)   DRY( 31,217)   DRY( 31,218)   DRY( 31,219)   
    DRY( 31,220)   DRY( 32,125)   DRY( 32,126)   DRY( 32,127)   DRY( 32,128)   
    DRY( 32,129)   DRY( 32,130)   DRY( 32,131)   DRY( 32,132)   DRY( 32,133)   
    DRY( 32,134)   DRY( 32,135)   DRY( 32,136)   DRY( 32,137)   DRY( 32,138)   
    DRY( 32,139)   DRY( 32,140)   DRY( 32,141)   DRY( 32,142)   DRY( 32,143)   
    DRY( 32,144)   DRY( 32,145)   DRY( 32,146)   DRY( 32,147)   DRY( 32,148)   
    DRY( 32,149)   DRY( 32,150)   DRY( 32,151)   DRY( 32,152)   DRY( 32,153)   
    DRY( 32,154)   DRY( 32,155)   DRY( 32,162)   DRY( 32,163)   DRY( 32,164)   
    DRY( 32,165)   DRY( 32,166)   DRY( 32,167)   DRY( 32,168)   DRY( 32,169)   
    DRY( 32,170)   DRY( 32,171)   DRY( 32,172)   DRY( 32,173)   DRY( 32,174)   
    DRY( 32,175)   DRY( 32,179)   DRY( 32,180)   DRY( 32,181)   DRY( 32,182)   
    DRY( 32,183)   DRY( 32,184)   DRY( 32,185)   DRY( 32,186)   DRY( 32,187)   
    DRY( 32,188)   DRY( 32,189)   DRY( 32,190)   DRY( 32,191)   DRY( 32,192)   
    DRY( 32,193)   DRY( 32,194)   DRY( 32,195)   DRY( 32,196)   DRY( 32,197)   
    DRY( 32,198)   DRY( 32,199)   DRY( 32,200)   DRY( 32,201)   DRY( 32,202)   
    DRY( 32,203)   DRY( 32,204)   DRY( 32,209)   DRY( 32,210)   DRY( 32,211)   
    DRY( 32,212)   DRY( 32,213)   DRY( 32,214)   DRY( 32,215)   DRY( 32,216)   
    DRY( 32,217)   DRY( 32,218)   DRY( 32,219)   DRY( 32,220)   DRY( 33,185)   
    DRY( 33,186)   DRY( 33,187)   DRY( 33,188)   DRY( 33,189)   DRY( 33,213)   
    DRY( 33,214)   DRY( 33,215)   DRY( 33,216)   DRY( 33,217)   DRY( 33,218)   
    DRY( 33,219)   DRY( 33,220)   DRY( 34,215)   DRY( 34,216)   DRY( 34,217)   
    DRY( 34,218)   DRY( 34,219)   DRY( 34,220)   DRY( 35,217)   DRY( 35,218)   
    DRY( 35,219)   DRY( 35,220)   DRY( 36,218)   DRY( 36,219)   DRY( 36,220)   

 CELL CONVERSIONS FOR ITER.=  3  LAYER= 13  STEP=  1  PERIOD=   1   (ROW,COL)
    DRY( 24,  1)   DRY( 24,  2)   DRY( 24,  3)   DRY( 24,  4)   DRY( 24,  5)   
    DRY( 24,  6)   DRY( 24,  7)   DRY( 24,  8)   DRY( 24,  9)   DRY( 24, 10)   
    DRY( 24, 11)   DRY( 24, 12)   DRY( 24, 13)   DRY( 24, 14)   DRY( 24, 15)   
    DRY( 24, 16)   DRY( 24, 17)   DRY( 24, 18)   DRY( 24, 19)   DRY( 24, 20)   
    DRY( 24, 21)   DRY( 24, 22)   DRY( 24, 23)   DRY( 24, 24)   DRY( 24, 25)   
    DRY( 24, 26)   DRY( 24,124)   DRY( 24,125)   DRY( 24,126)   DRY( 24,127)   
    DRY( 24,128)   DRY( 24,129)   DRY( 24,130)   DRY( 24,131)   DRY( 24,146)   
    DRY( 24,147)   DRY( 24,148)   DRY( 25,  1)   DRY( 25,  2)   DRY( 25,  3)   
    DRY( 25,  4)   DRY( 25,  5)   DRY( 25,  6)   DRY( 25,  7)   DRY( 25,  8)   
    DRY( 25,  9)   DRY( 25, 10)   DRY( 25, 11)   DRY( 25, 12)   DRY( 25, 13)   
    DRY( 25, 14)   DRY( 25, 15)   DRY( 25, 16)   DRY( 25, 17)   DRY( 25, 18)   
    DRY( 25, 19)   DRY( 25, 20)   DRY( 25, 21)   DRY( 25, 22)   DRY( 25, 23)   
    DRY( 25, 24)   DRY( 25, 25)   DRY( 25, 26)   DRY( 25, 27)   DRY( 25, 28)   
    DRY( 25, 29)   DRY( 25, 30)   DRY( 25, 31)   DRY( 25, 32)   DRY( 25, 33)   
    DRY( 25, 34)   DRY( 25, 35)   DRY( 25, 36)   DRY( 25, 37)   DRY( 25, 38)   
    DRY( 25, 39)   DRY( 25, 40)   DRY( 25, 41)   DRY( 25, 42)   DRY( 25, 43)   
    DRY( 25, 44)   DRY( 25, 45)   DRY( 25, 46)   DRY( 25, 47)   DRY( 25, 48)   
    DRY( 25, 49)   DRY( 25, 50)   DRY( 25, 51)   DRY( 25, 52)   DRY( 25, 53)   
    DRY( 25, 54)   DRY( 25, 55)   DRY( 25, 56)   DRY( 25, 57)   DRY( 25, 58)   
    DRY( 25, 59)   DRY( 25, 60)   DRY( 25, 61)   DRY( 25, 62)   DRY( 25, 63)   
    DRY( 25, 64)   DRY( 25, 65)   DRY( 25, 66)   DRY( 25, 67)   DRY( 25, 68)   
    DRY( 25, 69)   DRY( 25, 70)   DRY( 25, 71)   DRY( 25, 72)   DRY( 25, 73)   
    DRY( 25, 74)   DRY( 25, 75)   DRY( 25, 76)   DRY( 25, 77)   DRY( 25, 78)   
    DRY( 25, 79)   DRY( 25, 80)   DRY( 25, 81)   DRY( 25, 82)   DRY( 25, 83)   
    DRY( 25, 84)   DRY( 25, 85)   DRY( 25, 86)   DRY( 25, 87)   DRY( 25, 88)   
    DRY( 25, 89)   DRY( 25, 90)   DRY( 25, 91)   DRY( 25, 92)   DRY( 25, 93)   
    DRY( 25, 94)   DRY( 25, 95)   DRY( 25, 96)   DRY( 25, 97)   DRY( 25, 98)   
    DRY( 25, 99)   DRY( 25,100)   DRY( 25,101)   DRY( 25,102)   DRY( 25,103)   
    DRY( 25,104)   DRY( 25,105)   DRY( 25,106)   DRY( 25,107)   DRY( 25,108)   
    DRY( 25,109)   DRY( 25,110)   DRY( 25,111)   DRY( 25,112)   DRY( 25,113)   
    DRY( 25,114)   DRY( 25,115)   DRY( 25,116)   DRY( 25,117)   DRY( 25,118)   
    DRY( 25,119)   DRY( 25,120)   DRY( 25,121)   DRY( 25,122)   DRY( 25,123)   
    DRY( 25,124)   DRY( 25,125)   DRY( 25,126)   DRY( 25,127)   DRY( 25,128)   
    DRY( 25,129)   DRY( 25,130)   DRY( 25,131)   DRY( 25,132)   DRY( 25,133)   
    DRY( 25,134)   DRY( 25,135)   DRY( 25,136)   DRY( 25,137)   DRY( 25,138)   
    DRY( 25,139)   DRY( 25,140)   DRY( 25,141)   DRY( 25,142)   DRY( 25,143)   
    DRY( 25,144)   DRY( 25,145)   DRY( 25,146)   DRY( 25,147)   DRY( 25,148)   
    DRY( 25,149)   DRY( 25,150)   DRY( 25,151)   DRY( 25,152)   DRY( 25,153)   
    DRY( 25,154)   DRY( 25,155)   DRY( 25,156)   DRY( 25,157)   DRY( 25,158)   
    DRY( 25,159)   DRY( 25,160)   DRY( 25,161)   DRY( 25,162)   DRY( 25,163)   
    DRY( 25,164)   DRY( 25,165)   DRY( 25,166)   DRY( 25,167)   DRY( 25,168)   
    DRY( 25,169)   DRY( 25,170)   DRY( 25,171)   DRY( 25,172)   DRY( 25,173)   
    DRY( 25,174)   DRY( 25,175)   DRY( 25,176)   DRY( 25,177)   DRY( 25,178)   
    DRY( 25,179)   DRY( 25,180)   DRY( 25,181)   DRY( 25,182)   DRY( 25,183)   
    DRY( 25,184)   DRY( 25,185)   DRY( 25,186)   DRY( 25,187)   DRY( 25,188)   
    DRY( 25,189)   DRY( 25,190)   DRY( 25,191)   DRY( 25,192)   DRY( 25,193)   
    DRY( 25,194)   DRY( 25,195)   DRY( 25,196)   DRY( 25,197)   DRY( 25,198)   
    DRY( 25,199)   DRY( 25,200)   DRY( 25,201)   DRY( 25,202)   DRY( 25,203)   
    DRY( 25,204)   DRY( 25,205)   DRY( 25,206)   DRY( 25,207)   DRY( 25,208)   
    DRY( 25,209)   DRY( 25,210)   DRY( 25,211)   DRY( 25,212)   DRY( 25,213)   
    DRY( 25,214)   DRY( 25,215)   DRY( 25,216)   DRY( 25,217)   DRY( 25,218)   
    DRY( 25,219)   DRY( 25,220)   DRY( 26,  1)   DRY( 26,  2)   DRY( 26,  3)   
    DRY( 26,  4)   DRY( 26,  5)   DRY( 26,  6)   DRY( 26,  7)   DRY( 26,  8)   
    DRY( 26,  9)   DRY( 26, 10)   DRY( 26, 11)   DRY( 26, 12)   DRY( 26, 13)   
    DRY( 26, 14)   DRY( 26, 15)   DRY( 26, 16)   DRY( 26, 17)   DRY( 26, 18)   
    DRY( 26, 19)   DRY( 26, 20)   DRY( 26, 21)   DRY( 26, 22)   DRY( 26, 23)   
    DRY( 26, 24)   DRY( 26, 25)   DRY( 26, 26)   DRY( 26, 27)   DRY( 26, 28)   
    DRY( 26, 29)   DRY( 26, 30)   DRY( 26, 31)   DRY( 26, 32)   DRY( 26, 33)   
    DRY( 26, 34)   DRY( 26, 35)   DRY( 26, 36)   DRY( 26, 37)   DRY( 26, 38)   
    DRY( 26, 39)   DRY( 26, 40)   DRY( 26, 41)   DRY( 26, 42)   DRY( 26, 43)   
    DRY( 26, 44)   DRY( 26, 45)   DRY( 26, 46)   DRY( 26, 47)   DRY( 26, 48)   
    DRY( 26, 49)   DRY( 26, 50)   DRY( 26, 51)   DRY( 26, 52)   DRY( 26, 53)   
    DRY( 26, 54)   DRY( 26, 55)   DRY( 26, 56)   DRY( 26, 57)   DRY( 26, 58)   
    DRY( 26, 59)   DRY( 26, 60)   DRY( 26, 61)   DRY( 26, 62)   DRY( 26, 63)   
    DRY( 26, 64)   DRY( 26, 65)   DRY( 26, 66)   DRY( 26, 67)   DRY( 26, 68)   
    DRY( 26, 69)   DRY( 26, 70)   DRY( 26, 71)   DRY( 26, 72)   DRY( 26, 73)   
    DRY( 26, 74)   DRY( 26, 75)   DRY( 26, 76)   DRY( 26, 77)   DRY( 26, 78)   
    DRY( 26, 79)   DRY( 26, 80)   DRY( 26, 81)   DRY( 26, 82)   DRY( 26, 83)   
    DRY( 26, 84)   DRY( 26, 85)   DRY( 26, 86)   DRY( 26, 87)   DRY( 26, 88)   
    DRY( 26, 89)   DRY( 26, 90)   DRY( 26, 91)   DRY( 26, 92)   DRY( 26, 93)   
    DRY( 26, 94)   DRY( 26, 95)   DRY( 26, 96)   DRY( 26, 97)   DRY( 26, 98)   
    DRY( 26, 99)   DRY( 26,100)   DRY( 26,101)   DRY( 26,102)   DRY( 26,103)   
    DRY( 26,104)   DRY( 26,105)   DRY( 26,106)   DRY( 26,107)   DRY( 26,108)   
    DRY( 26,109)   DRY( 26,110)   DRY( 26,111)   DRY( 26,112)   DRY( 26,113)   
    DRY( 26,114)   DRY( 26,115)   DRY( 26,116)   DRY( 26,117)   DRY( 26,118)   
    DRY( 26,119)   DRY( 26,120)   DRY( 26,121)   DRY( 26,122)   DRY( 26,123)   
    DRY( 26,124)   DRY( 26,125)   DRY( 26,126)   DRY( 26,127)   DRY( 26,128)   
    DRY( 26,129)   DRY( 26,130)   DRY( 26,131)   DRY( 26,132)   DRY( 26,133)   
    DRY( 26,134)   DRY( 26,135)   DRY( 26,136)   DRY( 26,137)   DRY( 26,138)   
    DRY( 26,139)   DRY( 26,140)   DRY( 26,141)   DRY( 26,142)   DRY( 26,143)   
    DRY( 26,144)   DRY( 26,145)   DRY( 26,146)   DRY( 26,147)   DRY( 26,148)   
    DRY( 26,149)   DRY( 26,150)   DRY( 26,151)   DRY( 26,152)   DRY( 26,153)   
    DRY( 26,154)   DRY( 26,155)   DRY( 26,156)   DRY( 26,157)   DRY( 26,158)   
    DRY( 26,159)   DRY( 26,160)   DRY( 26,161)   DRY( 26,162)   DRY( 26,163)   
    DRY( 26,164)   DRY( 26,165)   DRY( 26,166)   DRY( 26,167)   DRY( 26,168)   
    DRY( 26,169)   DRY( 26,170)   DRY( 26,171)   DRY( 26,172)   DRY( 26,173)   
    DRY( 26,174)   DRY( 26,175)   DRY( 26,176)   DRY( 26,177)   DRY( 26,178)   
    DRY( 26,179)   DRY( 26,180)   DRY( 26,181)   DRY( 26,182)   DRY( 26,183)   
    DRY( 26,184)   DRY( 26,185)   DRY( 26,186)   DRY( 26,187)   DRY( 26,188)   
    DRY( 26,189)   DRY( 26,190)   DRY( 26,191)   DRY( 26,192)   DRY( 26,193)   
    DRY( 26,194)   DRY( 26,195)   DRY( 26,196)   DRY( 26,197)   DRY( 26,198)   
    DRY( 26,199)   DRY( 26,200)   DRY( 26,201)   DRY( 26,202)   DRY( 26,203)   
    DRY( 26,204)   DRY( 26,205)   DRY( 26,206)   DRY( 26,207)   DRY( 26,208)   
    DRY( 26,209)   DRY( 26,210)   DRY( 26,211)   DRY( 26,212)   DRY( 26,213)   
    DRY( 26,214)   DRY( 26,215)   DRY( 26,216)   DRY( 26,217)   DRY( 26,218)   
    DRY( 26,219)   DRY( 26,220)   DRY( 27,  1)   DRY( 27,  2)   DRY( 27,  3)   
    DRY( 27,  4)   DRY( 27,  5)   DRY( 27,  6)   DRY( 27,  7)   DRY( 27,  8)   
    DRY( 27,  9)   DRY( 27, 10)   DRY( 27, 11)   DRY( 27, 12)   DRY( 27, 13)   
    DRY( 27, 14)   DRY( 27, 15)   DRY( 27, 16)   DRY( 27, 17)   DRY( 27, 18)   
    DRY( 27, 19)   DRY( 27, 20)   DRY( 27, 21)   DRY( 27, 22)   DRY( 27, 23)   
    DRY( 27, 24)   DRY( 27, 25)   DRY( 27, 26)   DRY( 27, 27)   DRY( 27, 28)   
    DRY( 27, 29)   DRY( 27, 30)   DRY( 27, 31)   DRY( 27, 32)   DRY( 27, 33)   
    DRY( 27, 34)   DRY( 27, 35)   DRY( 27, 36)   DRY( 27, 37)   DRY( 27, 38)   
    DRY( 27, 39)   DRY( 27, 40)   DRY( 27, 41)   DRY( 27, 42)   DRY( 27, 43)   
    DRY( 27, 44)   DRY( 27, 45)   DRY( 27, 46)   DRY( 27, 47)   DRY( 27, 48)   
    DRY( 27, 49)   DRY( 27, 50)   DRY( 27, 51)   DRY( 27, 52)   DRY( 27, 53)   
    DRY( 27, 54)   DRY( 27, 55)   DRY( 27, 56)   DRY( 27, 57)   DRY( 27, 58)   
    DRY( 27, 59)   DRY( 27, 60)   DRY( 27, 61)   DRY( 27, 62)   DRY( 27, 63)   
    DRY( 27, 64)   DRY( 27, 65)   DRY( 27, 66)   DRY( 27, 67)   DRY( 27, 68)   
    DRY( 27, 69)   DRY( 27, 70)   DRY( 27, 71)   DRY( 27, 72)   DRY( 27, 73)   
    DRY( 27, 74)   DRY( 27, 75)   DRY( 27, 76)   DRY( 27, 77)   DRY( 27, 78)   
    DRY( 27, 79)   DRY( 27, 80)   DRY( 27, 81)   DRY( 27, 82)   DRY( 27, 83)   
    DRY( 27, 84)   DRY( 27, 85)   DRY( 27, 86)   DRY( 27, 87)   DRY( 27, 88)   
    DRY( 27, 89)   DRY( 27, 90)   DRY( 27, 91)   DRY( 27, 92)   DRY( 27, 93)   
    DRY( 27, 94)   DRY( 27, 95)   DRY( 27, 96)   DRY( 27, 97)   DRY( 27, 98)   
    DRY( 27, 99)   DRY( 27,100)   DRY( 27,101)   DRY( 27,102)   DRY( 27,103)   
    DRY( 27,104)   DRY( 27,105)   DRY( 27,106)   DRY( 27,107)   DRY( 27,108)   
    DRY( 27,109)   DRY( 27,110)   DRY( 27,111)   DRY( 27,112)   DRY( 27,113)   
    DRY( 27,114)   DRY( 27,115)   DRY( 27,116)   DRY( 27,117)   DRY( 27,118)   
    DRY( 27,119)   DRY( 27,120)   DRY( 27,121)   DRY( 27,122)   DRY( 27,123)   
    DRY( 27,124)   DRY( 27,125)   DRY( 27,126)   DRY( 27,127)   DRY( 27,128)   
    DRY( 27,129)   DRY( 27,130)   DRY( 27,131)   DRY( 27,132)   DRY( 27,133)   
    DRY( 27,134)   DRY( 27,135)   DRY( 27,136)   DRY( 27,137)   DRY( 27,138)   
    DRY( 27,139)   DRY( 27,140)   DRY( 27,141)   DRY( 27,142)   DRY( 27,143)   
    DRY( 27,144)   DRY( 27,145)   DRY( 27,146)   DRY( 27,147)   DRY( 27,148)   
    DRY( 27,149)   DRY( 27,150)   DRY( 27,151)   DRY( 27,152)   DRY( 27,153)   
    DRY( 27,154)   DRY( 27,155)   DRY( 27,156)   DRY( 27,157)   DRY( 27,158)   
    DRY( 27,159)   DRY( 27,160)   DRY( 27,161)   DRY( 27,162)   DRY( 27,163)   
    DRY( 27,164)   DRY( 27,165)   DRY( 27,166)   DRY( 27,167)   DRY( 27,168)   
    DRY( 27,169)   DRY( 27,170)   DRY( 27,171)   DRY( 27,172)   DRY( 27,173)   
    DRY( 27,174)   DRY( 27,175)   DRY( 27,176)   DRY( 27,177)   DRY( 27,178)   
    DRY( 27,179)   DRY( 27,180)   DRY( 27,181)   DRY( 27,182)   DRY( 27,183)   
    DRY( 27,184)   DRY( 27,185)   DRY( 27,186)   DRY( 27,187)   DRY( 27,188)   
    DRY( 27,189)   DRY( 27,190)   DRY( 27,191)   DRY( 27,192)   DRY( 27,193)   
    DRY( 27,194)   DRY( 27,195)   DRY( 27,196)   DRY( 27,197)   DRY( 27,198)   
    DRY( 27,199)   DRY( 27,200)   DRY( 27,201)   DRY( 27,202)   DRY( 27,203)   
    DRY( 27,204)   DRY( 27,205)   DRY( 27,206)   DRY( 27,207)   DRY( 27,208)   
    DRY( 27,209)   DRY( 27,210)   DRY( 27,211)   DRY( 27,212)   DRY( 27,213)   
    DRY( 27,214)   DRY( 27,215)   DRY( 27,216)   DRY( 27,217)   DRY( 27,218)   
    DRY( 27,219)   DRY( 27,220)   DRY( 28,  1)   DRY( 28,  2)   DRY( 28,  3)   
    DRY( 28,  4)   DRY( 28,  5)   DRY( 28,  6)   DRY( 28,  7)   DRY( 28,  8)   
    DRY( 28,  9)   DRY( 28, 10)   DRY( 28, 11)   DRY( 28, 12)   DRY( 28, 13)   
    DRY( 28, 14)   DRY( 28, 15)   DRY( 28, 16)   DRY( 28, 17)   DRY( 28, 18)   
    DRY( 28, 19)   DRY( 28, 20)   DRY( 28, 21)   DRY( 28, 22)   DRY( 28, 23)   
    DRY( 28, 24)   DRY( 28, 25)   DRY( 28, 26)   DRY( 28, 27)   DRY( 28, 28)   
    DRY( 28, 29)   DRY( 28, 30)   DRY( 28, 31)   DRY( 28, 32)   DRY( 28, 33)   
    DRY( 28, 34)   DRY( 28, 35)   DRY( 28, 36)   DRY( 28, 37)   DRY( 28, 38)   
    DRY( 28, 39)   DRY( 28, 40)   DRY( 28, 41)   DRY( 28, 42)   DRY( 28, 43)   
    DRY( 28, 44)   DRY( 28, 45)   DRY( 28, 46)   DRY( 28, 47)   DRY( 28, 48)   
    DRY( 28, 49)   DRY( 28, 50)   DRY( 28, 51)   DRY( 28, 52)   DRY( 28, 53)   
    DRY( 28, 54)   DRY( 28, 55)   DRY( 28, 56)   DRY( 28, 57)   DRY( 28, 58)   
    DRY( 28, 59)   DRY( 28, 60)   DRY( 28, 61)   DRY( 28, 62)   DRY( 28, 63)   
    DRY( 28, 64)   DRY( 28, 65)   DRY( 28, 66)   DRY( 28, 67)   DRY( 28, 68)   
    DRY( 28, 69)   DRY( 28, 70)   DRY( 28, 71)   DRY( 28, 72)   DRY( 28, 73)   
    DRY( 28, 74)   DRY( 28, 75)   DRY( 28, 76)   DRY( 28, 77)   DRY( 28, 78)   
    DRY( 28, 79)   DRY( 28, 80)   DRY( 28, 81)   DRY( 28, 82)   DRY( 28, 83)   
    DRY( 28, 84)   DRY( 28, 85)   DRY( 28, 86)   DRY( 28, 87)   DRY( 28, 88)   
    DRY( 28, 89)   DRY( 28, 90)   DRY( 28, 91)   DRY( 28, 92)   DRY( 28, 93)   
    DRY( 28, 94)   DRY( 28, 95)   DRY( 28, 96)   DRY( 28, 97)   DRY( 28, 98)   
    DRY( 28, 99)   DRY( 28,100)   DRY( 28,101)   DRY( 28,102)   DRY( 28,103)   
    DRY( 28,104)   DRY( 28,105)   DRY( 28,106)   DRY( 28,107)   DRY( 28,108)   
    DRY( 28,109)   DRY( 28,110)   DRY( 28,111)   DRY( 28,112)   DRY( 28,113)   
    DRY( 28,114)   DRY( 28,115)   DRY( 28,116)   DRY( 28,117)   DRY( 28,118)   
    DRY( 28,119)   DRY( 28,120)   DRY( 28,121)   DRY( 28,122)   DRY( 28,123)   
    DRY( 28,124)   DRY( 28,125)   DRY( 28,126)   DRY( 28,127)   DRY( 28,128)   
    DRY( 28,129)   DRY( 28,130)   DRY( 28,131)   DRY( 28,132)   DRY( 28,133)   
    DRY( 28,134)   DRY( 28,135)   DRY( 28,136)   DRY( 28,137)   DRY( 28,138)   
    DRY( 28,139)   DRY( 28,140)   DRY( 28,141)   DRY( 28,142)   DRY( 28,143)   
    DRY( 28,144)   DRY( 28,145)   DRY( 28,146)   DRY( 28,147)   DRY( 28,148)   
    DRY( 28,149)   DRY( 28,150)   DRY( 28,151)   DRY( 28,152)   DRY( 28,153)   
    DRY( 28,154)   DRY( 28,155)   DRY( 28,156)   DRY( 28,157)   DRY( 28,158)   
    DRY( 28,159)   DRY( 28,160)   DRY( 28,161)   DRY( 28,162)   DRY( 28,163)   
    DRY( 28,164)   DRY( 28,165)   DRY( 28,166)   DRY( 28,167)   DRY( 28,168)   
    DRY( 28,169)   DRY( 28,170)   DRY( 28,171)   DRY( 28,172)   DRY( 28,173)   
    DRY( 28,174)   DRY( 28,175)   DRY( 28,176)   DRY( 28,177)   DRY( 28,178)   
    DRY( 28,179)   DRY( 28,180)   DRY( 28,181)   DRY( 28,182)   DRY( 28,183)   
    DRY( 28,184)   DRY( 28,185)   DRY( 28,186)   DRY( 28,187)   DRY( 28,188)   
    DRY( 28,189)   DRY( 28,190)   DRY( 28,191)   DRY( 28,192)   DRY( 28,193)   
    DRY( 28,194)   DRY( 28,195)   DRY( 28,196)   DRY( 28,197)   DRY( 28,198)   
    DRY( 28,199)   DRY( 28,200)   DRY( 28,201)   DRY( 28,202)   DRY( 28,203)   
    DRY( 28,204)   DRY( 28,205)   DRY( 28,206)   DRY( 28,207)   DRY( 28,208)   
    DRY( 28,209)   DRY( 28,210)   DRY( 28,211)   DRY( 28,212)   DRY( 28,213)   
    DRY( 28,214)   DRY( 28,215)   DRY( 28,216)   DRY( 28,217)   DRY( 28,218)   
    DRY( 28,219)   DRY( 28,220)   DRY( 29,  1)   DRY( 29,  2)   DRY( 29,  3)   
    DRY( 29,  4)   DRY( 29,  5)   DRY( 29,  6)   DRY( 29,  7)   DRY( 29,  8)   
    DRY( 29,  9)   DRY( 29, 10)   DRY( 29, 11)   DRY( 29, 12)   DRY( 29, 13)   
    DRY( 29, 14)   DRY( 29, 15)   DRY( 29, 16)   DRY( 29, 17)   DRY( 29, 18)   
    DRY( 29, 19)   DRY( 29, 20)   DRY( 29, 21)   DRY( 29, 22)   DRY( 29, 23)   
    DRY( 29, 24)   DRY( 29, 25)   DRY( 29, 26)   DRY( 29, 27)   DRY( 29, 28)   
    DRY( 29, 29)   DRY( 29, 30)   DRY( 29, 31)   DRY( 29, 32)   DRY( 29, 33)   
    DRY( 29, 34)   DRY( 29, 35)   DRY( 29, 36)   DRY( 29, 37)   DRY( 29, 38)   
    DRY( 29, 39)   DRY( 29, 40)   DRY( 29, 41)   DRY( 29, 42)   DRY( 29, 43)   
    DRY( 29, 44)   DRY( 29, 45)   DRY( 29, 46)   DRY( 29, 47)   DRY( 29, 48)   
    DRY( 29, 49)   DRY( 29, 50)   DRY( 29, 51)   DRY( 29, 52)   DRY( 29, 53)   
    DRY( 29, 54)   DRY( 29, 55)   DRY( 29, 56)   DRY( 29, 57)   DRY( 29, 58)   
    DRY( 29, 59)   DRY( 29, 60)   DRY( 29, 61)   DRY( 29, 62)   DRY( 29, 63)   
    DRY( 29, 64)   DRY( 29, 65)   DRY( 29, 66)   DRY( 29, 67)   DRY( 29, 68)   
    DRY( 29, 69)   DRY( 29, 70)   DRY( 29, 71)   DRY( 29, 72)   DRY( 29, 73)   
    DRY( 29, 74)   DRY( 29, 75)   DRY( 29, 76)   DRY( 29, 77)   DRY( 29, 78)   
    DRY( 29, 79)   DRY( 29, 80)   DRY( 29, 81)   DRY( 29, 82)   DRY( 29, 83)   
    DRY( 29, 84)   DRY( 29, 85)   DRY( 29, 86)   DRY( 29, 87)   DRY( 29, 88)   
    DRY( 29, 89)   DRY( 29, 90)   DRY( 29, 91)   DRY( 29, 92)   DRY( 29, 93)   
    DRY( 29, 94)   DRY( 29, 95)   DRY( 29, 96)   DRY( 29, 97)   DRY( 29, 98)   
    DRY( 29, 99)   DRY( 29,100)   DRY( 29,101)   DRY( 29,102)   DRY( 29,103)   
    DRY( 29,104)   DRY( 29,105)   DRY( 29,106)   DRY( 29,107)   DRY( 29,108)   
    DRY( 29,109)   DRY( 29,110)   DRY( 29,111)   DRY( 29,112)   DRY( 29,113)   
    DRY( 29,114)   DRY( 29,115)   DRY( 29,116)   DRY( 29,117)   DRY( 29,118)   
    DRY( 29,119)   DRY( 29,120)   DRY( 29,121)   DRY( 29,122)   DRY( 29,123)   
    DRY( 29,124)   DRY( 29,125)   DRY( 29,126)   DRY( 29,127)   DRY( 29,128)   
    DRY( 29,129)   DRY( 29,130)   DRY( 29,131)   DRY( 29,132)   DRY( 29,133)   
    DRY( 29,134)   DRY( 29,135)   DRY( 29,136)   DRY( 29,137)   DRY( 29,138)   
    DRY( 29,139)   DRY( 29,140)   DRY( 29,141)   DRY( 29,142)   DRY( 29,143)   
    DRY( 29,144)   DRY( 29,145)   DRY( 29,146)   DRY( 29,147)   DRY( 29,148)   
    DRY( 29,149)   DRY( 29,150)   DRY( 29,151)   DRY( 29,152)   DRY( 29,153)   
    DRY( 29,154)   DRY( 29,155)   DRY( 29,156)   DRY( 29,157)   DRY( 29,158)   
    DRY( 29,159)   DRY( 29,160)   DRY( 29,161)   DRY( 29,162)   DRY( 29,163)   
    DRY( 29,164)   DRY( 29,165)   DRY( 29,166)   DRY( 29,167)   DRY( 29,168)   
    DRY( 29,169)   DRY( 29,170)   DRY( 29,171)   DRY( 29,172)   DRY( 29,173)   
    DRY( 29,174)   DRY( 29,175)   DRY( 29,176)   DRY( 29,177)   DRY( 29,178)   
    DRY( 29,179)   DRY( 29,180)   DRY( 29,181)   DRY( 29,182)   DRY( 29,183)   
    DRY( 29,184)   DRY( 29,185)   DRY( 29,186)   DRY( 29,187)   DRY( 29,188)   
    DRY( 29,189)   DRY( 29,190)   DRY( 29,191)   DRY( 29,192)   DRY( 29,193)   
    DRY( 29,194)   DRY( 29,195)   DRY( 29,196)   DRY( 29,197)   DRY( 29,198)   
    DRY( 29,199)   DRY( 29,200)   DRY( 29,201)   DRY( 29,202)   DRY( 29,203)   
    DRY( 29,204)   DRY( 29,205)   DRY( 29,206)   DRY( 29,207)   DRY( 29,208)   
    DRY( 29,209)   DRY( 29,210)   DRY( 29,211)   DRY( 29,212)   DRY( 29,213)   
    DRY( 29,214)   DRY( 29,215)   DRY( 29,216)   DRY( 29,217)   DRY( 29,218)   
    DRY( 29,219)   DRY( 29,220)   DRY( 30,  4)   DRY( 30,  5)   DRY( 30,  6)   
    DRY( 30,  7)   DRY( 30,  8)   DRY( 30,  9)   DRY( 30, 10)   DRY( 30, 11)   
    DRY( 30, 12)   DRY( 30, 13)   DRY( 30, 14)   DRY( 30, 15)   DRY( 30, 16)   
    DRY( 30, 17)   DRY( 30, 18)   DRY( 30, 19)   DRY( 30, 20)   DRY( 30, 21)   
    DRY( 30, 22)   DRY( 30, 23)   DRY( 30, 24)   DRY( 30, 25)   DRY( 30, 26)   
    DRY( 30, 27)   DRY( 30, 28)   DRY( 30, 29)   DRY( 30, 30)   DRY( 30, 31)   
    DRY( 30, 32)   DRY( 30, 33)   DRY( 30, 34)   DRY( 30, 35)   DRY( 30, 36)   
    DRY( 30, 37)   DRY( 30, 38)   DRY( 30, 39)   DRY( 30, 40)   DRY( 30, 41)   
    DRY( 30, 42)   DRY( 30, 43)   DRY( 30, 44)   DRY( 30, 45)   DRY( 30, 46)   
    DRY( 30, 47)   DRY( 30, 48)   DRY( 30, 49)   DRY( 30, 50)   DRY( 30, 51)   
    DRY( 30, 52)   DRY( 30, 53)   DRY( 30, 54)   DRY( 30, 55)   DRY( 30, 56)   
    DRY( 30, 57)   DRY( 30, 58)   DRY( 30, 59)   DRY( 30, 60)   DRY( 30, 61)   
    DRY( 30, 62)   DRY( 30, 63)   DRY( 30, 64)   DRY( 30, 65)   DRY( 30, 66)   
    DRY( 30, 67)   DRY( 30, 68)   DRY( 30, 69)   DRY( 30, 70)   DRY( 30, 71)   
    DRY( 30, 72)   DRY( 30, 73)   DRY( 30, 74)   DRY( 30, 75)   DRY( 30, 76)   
    DRY( 30, 77)   DRY( 30, 78)   DRY( 30, 79)   DRY( 30, 80)   DRY( 30, 81)   
    DRY( 30, 82)   DRY( 30, 83)   DRY( 30, 84)   DRY( 30, 85)   DRY( 30, 86)   
    DRY( 30, 87)   DRY( 30, 88)   DRY( 30, 89)   DRY( 30, 90)   DRY( 30, 91)   
    DRY( 30, 92)   DRY( 30, 93)   DRY( 30, 94)   DRY( 30, 95)   DRY( 30, 96)   
    DRY( 30, 97)   DRY( 30, 98)   DRY( 30, 99)   DRY( 30,100)   DRY( 30,101)   
    DRY( 30,102)   DRY( 30,103)   DRY( 30,104)   DRY( 30,105)   DRY( 30,106)   
    DRY( 30,107)   DRY( 30,108)   DRY( 30,109)   DRY( 30,110)   DRY( 30,111)   
    DRY( 30,112)   DRY( 30,113)   DRY( 30,114)   DRY( 30,115)   DRY( 30,116)   
    DRY( 30,117)   DRY( 30,118)   DRY( 30,119)   DRY( 30,120)   DRY( 30,121)   
    DRY( 30,122)   DRY( 30,123)   DRY( 30,124)   DRY( 30,125)   DRY( 30,126)   
    DRY( 30,127)   DRY( 30,128)   DRY( 30,129)   DRY( 30,130)   DRY( 30,131)   
    DRY( 30,132)   DRY( 30,133)   DRY( 30,134)   DRY( 30,135)   DRY( 30,136)   
    DRY( 30,137)   DRY( 30,138)   DRY( 30,139)   DRY( 30,140)   DRY( 30,141)   
    DRY( 30,142)   DRY( 30,143)   DRY( 30,144)   DRY( 30,145)   DRY( 30,146)   
    DRY( 30,147)   DRY( 30,148)   DRY( 30,149)   DRY( 30,150)   DRY( 30,151)   
    DRY( 30,152)   DRY( 30,153)   DRY( 30,154)   DRY( 30,155)   DRY( 30,156)   
    DRY( 30,157)   DRY( 30,158)   DRY( 30,159)   DRY( 30,160)   DRY( 30,161)   
    DRY( 30,162)   DRY( 30,163)   DRY( 30,164)   DRY( 30,165)   DRY( 30,166)   
    DRY( 30,167)   DRY( 30,168)   DRY( 30,169)   DRY( 30,170)   DRY( 30,171)   
    DRY( 30,172)   DRY( 30,173)   DRY( 30,174)   DRY( 30,175)   DRY( 30,176)   
    DRY( 30,177)   DRY( 30,178)   DRY( 30,179)   DRY( 30,180)   DRY( 30,181)   
    DRY( 30,182)   DRY( 30,183)   DRY( 30,184)   DRY( 30,185)   DRY( 30,186)   
    DRY( 30,187)   DRY( 30,188)   DRY( 30,189)   DRY( 30,190)   DRY( 30,191)   
    DRY( 30,192)   DRY( 30,193)   DRY( 30,194)   DRY( 30,195)   DRY( 30,196)   
    DRY( 30,197)   DRY( 30,198)   DRY( 30,199)   DRY( 30,200)   DRY( 30,201)   
    DRY( 30,202)   DRY( 30,203)   DRY( 30,204)   DRY( 30,205)   DRY( 30,206)   
    DRY( 30,207)   DRY( 30,208)   DRY( 30,209)   DRY( 30,210)   DRY( 30,211)   
    DRY( 30,212)   DRY( 30,213)   DRY( 30,214)   DRY( 30,215)   DRY( 30,216)   
    DRY( 30,217)   DRY( 30,218)   DRY( 30,219)   DRY( 30,220)   DRY( 31,  6)   
    DRY( 31,  7)   DRY( 31,  8)   DRY( 31,  9)   DRY( 31, 10)   DRY( 31, 11)   
    DRY( 31, 12)   DRY( 31, 13)   DRY( 31, 14)   DRY( 31, 15)   DRY( 31, 16)   
    DRY( 31, 17)   DRY( 31, 18)   DRY( 31, 19)   DRY( 31, 20)   DRY( 31, 21)   
    DRY( 31, 22)   DRY( 31, 23)   DRY( 31, 24)   DRY( 31, 25)   DRY( 31, 26)   
    DRY( 31, 27)   DRY( 31, 28)   DRY( 31, 29)   DRY( 31, 30)   DRY( 31, 31)   
    DRY( 31, 32)   DRY( 31, 33)   DRY( 31, 34)   DRY( 31, 35)   DRY( 31, 36)   
    DRY( 31, 37)   DRY( 31, 38)   DRY( 31, 39)   DRY( 31, 40)   DRY( 31, 41)   
    DRY( 31, 42)   DRY( 31, 43)   DRY( 31, 44)   DRY( 31, 45)   DRY( 31, 46)   
    DRY( 31, 47)   DRY( 31, 48)   DRY( 31, 49)   DRY( 31, 50)   DRY( 31, 51)   
    DRY( 31, 52)   DRY( 31, 53)   DRY( 31, 54)   DRY( 31, 55)   DRY( 31, 56)   
    DRY( 31, 57)   DRY( 31, 58)   DRY( 31, 59)   DRY( 31, 60)   DRY( 31, 61)   
    DRY( 31, 62)   DRY( 31, 63)   DRY( 31, 64)   DRY( 31, 65)   DRY( 31, 66)   
    DRY( 31, 67)   DRY( 31, 68)   DRY( 31, 69)   DRY( 31, 70)   DRY( 31, 71)   
    DRY( 31, 72)   DRY( 31, 73)   DRY( 31, 74)   DRY( 31, 75)   DRY( 31, 76)   
    DRY( 31, 77)   DRY( 31, 78)   DRY( 31, 79)   DRY( 31, 80)   DRY( 31, 81)   
    DRY( 31, 82)   DRY( 31, 83)   DRY( 31, 84)   DRY( 31, 85)   DRY( 31, 86)   
    DRY( 31, 87)   DRY( 31, 88)   DRY( 31, 89)   DRY( 31, 90)   DRY( 31, 91)   
    DRY( 31, 92)   DRY( 31, 93)   DRY( 31, 94)   DRY( 31, 95)   DRY( 31, 96)   
    DRY( 31, 97)   DRY( 31, 98)   DRY( 31, 99)   DRY( 31,100)   DRY( 31,101)   
    DRY( 31,102)   DRY( 31,103)   DRY( 31,104)   DRY( 31,105)   DRY( 31,106)   
    DRY( 31,107)   DRY( 31,108)   DRY( 31,109)   DRY( 31,110)   DRY( 31,111)   
    DRY( 31,112)   DRY( 31,113)   DRY( 31,114)   DRY( 31,115)   DRY( 31,116)   
    DRY( 31,117)   DRY( 31,118)   DRY( 31,119)   DRY( 31,120)   DRY( 31,121)   
    DRY( 31,122)   DRY( 31,123)   DRY( 31,124)   DRY( 31,125)   DRY( 31,126)   
    DRY( 31,127)   DRY( 31,128)   DRY( 31,129)   DRY( 31,130)   DRY( 31,131)   
    DRY( 31,132)   DRY( 31,133)   DRY( 31,134)   DRY( 31,135)   DRY( 31,136)   
    DRY( 31,137)   DRY( 31,138)   DRY( 31,139)   DRY( 31,140)   DRY( 31,141)   
    DRY( 31,142)   DRY( 31,143)   DRY( 31,144)   DRY( 31,145)   DRY( 31,146)   
    DRY( 31,147)   DRY( 31,148)   DRY( 31,149)   DRY( 31,150)   DRY( 31,151)   
    DRY( 31,152)   DRY( 31,153)   DRY( 31,154)   DRY( 31,155)   DRY( 31,156)   
    DRY( 31,157)   DRY( 31,158)   DRY( 31,159)   DRY( 31,160)   DRY( 31,161)   
    DRY( 31,162)   DRY( 31,163)   DRY( 31,164)   DRY( 31,165)   DRY( 31,166)   
    DRY( 31,167)   DRY( 31,168)   DRY( 31,169)   DRY( 31,170)   DRY( 31,171)   
    DRY( 31,172)   DRY( 31,173)   DRY( 31,174)   DRY( 31,175)   DRY( 31,176)   
    DRY( 31,177)   DRY( 31,178)   DRY( 31,179)   DRY( 31,180)   DRY( 31,181)   
    DRY( 31,182)   DRY( 31,183)   DRY( 31,184)   DRY( 31,185)   DRY( 31,186)   
    DRY( 31,187)   DRY( 31,188)   DRY( 31,189)   DRY( 31,190)   DRY( 31,191)   
    DRY( 31,192)   DRY( 31,193)   DRY( 31,194)   DRY( 31,195)   DRY( 31,196)   
    DRY( 31,197)   DRY( 31,198)   DRY( 31,199)   DRY( 31,200)   DRY( 31,201)   
    DRY( 31,202)   DRY( 31,203)   DRY( 31,204)   DRY( 31,205)   DRY( 31,206)   
    DRY( 31,207)   DRY( 31,208)   DRY( 31,209)   DRY( 31,210)   DRY( 31,211)   
    DRY( 31,212)   DRY( 31,213)   DRY( 31,214)   DRY( 31,215)   DRY( 31,216)   
    DRY( 31,217)   DRY( 31,218)   DRY( 31,219)   DRY( 31,220)   DRY( 32, 11)   
    DRY( 32, 12)   DRY( 32, 13)   DRY( 32, 14)   DRY( 32, 15)   DRY( 32, 16)   
    DRY( 32, 17)   DRY( 32, 18)   DRY( 32, 19)   DRY( 32, 20)   DRY( 32, 21)   
    DRY( 32, 22)   DRY( 32, 23)   DRY( 32, 24)   DRY( 32, 25)   DRY( 32, 26)   
    DRY( 32, 27)   DRY( 32, 28)   DRY( 32, 29)   DRY( 32, 30)   DRY( 32, 31)   
    DRY( 32, 32)   DRY( 32, 33)   DRY( 32, 34)   DRY( 32, 35)   DRY( 32, 36)   
    DRY( 32, 37)   DRY( 32, 38)   DRY( 32, 39)   DRY( 32, 40)   DRY( 32, 41)   
    DRY( 32, 42)   DRY( 32, 43)   DRY( 32, 44)   DRY( 32, 45)   DRY( 32, 46)   
    DRY( 32, 47)   DRY( 32, 48)   DRY( 32, 49)   DRY( 32, 50)   DRY( 32, 51)   
    DRY( 32, 52)   DRY( 32, 53)   DRY( 32, 54)   DRY( 32, 55)   DRY( 32, 56)   
    DRY( 32, 57)   DRY( 32, 58)   DRY( 32, 59)   DRY( 32, 60)   DRY( 32, 61)   
    DRY( 32, 62)   DRY( 32, 63)   DRY( 32, 64)   DRY( 32, 65)   DRY( 32, 66)   
    DRY( 32, 67)   DRY( 32, 68)   DRY( 32, 69)   DRY( 32, 70)   DRY( 32, 71)   
    DRY( 32, 72)   DRY( 32, 73)   DRY( 32, 74)   DRY( 32, 75)   DRY( 32, 76)   
    DRY( 32, 77)   DRY( 32, 78)   DRY( 32, 79)   DRY( 32, 80)   DRY( 32, 81)   
    DRY( 32, 82)   DRY( 32, 83)   DRY( 32, 84)   DRY( 32, 85)   DRY( 32, 86)   
    DRY( 32, 87)   DRY( 32, 88)   DRY( 32, 89)   DRY( 32, 90)   DRY( 32, 91)   
    DRY( 32, 92)   DRY( 32, 93)   DRY( 32, 94)   DRY( 32, 95)   DRY( 32, 96)   
    DRY( 32, 97)   DRY( 32, 98)   DRY( 32, 99)   DRY( 32,100)   DRY( 32,101)   
    DRY( 32,102)   DRY( 32,103)   DRY( 32,104)   DRY( 32,105)   DRY( 32,106)   
    DRY( 32,107)   DRY( 32,108)   DRY( 32,109)   DRY( 32,110)   DRY( 32,111)   
    DRY( 32,112)   DRY( 32,113)   DRY( 32,114)   DRY( 32,115)   DRY( 32,116)   
    DRY( 32,117)   DRY( 32,118)   DRY( 32,119)   DRY( 32,120)   DRY( 32,121)   
    DRY( 32,122)   DRY( 32,123)   DRY( 32,124)   DRY( 32,125)   DRY( 32,126)   
    DRY( 32,127)   DRY( 32,128)   DRY( 32,129)   DRY( 32,130)   DRY( 32,131)   
    DRY( 32,132)   DRY( 32,133)   DRY( 32,134)   DRY( 32,135)   DRY( 32,136)   
    DRY( 32,137)   DRY( 32,138)   DRY( 32,139)   DRY( 32,140)   DRY( 32,141)   
    DRY( 32,142)   DRY( 32,143)   DRY( 32,144)   DRY( 32,145)   DRY( 32,146)   
    DRY( 32,147)   DRY( 32,148)   DRY( 32,149)   DRY( 32,150)   DRY( 32,151)   
    DRY( 32,152)   DRY( 32,153)   DRY( 32,154)   DRY( 32,155)   DRY( 32,156)   
    DRY( 32,157)   DRY( 32,158)   DRY( 32,159)   DRY( 32,160)   DRY( 32,161)   
    DRY( 32,162)   DRY( 32,163)   DRY( 32,164)   DRY( 32,165)   DRY( 32,166)   
    DRY( 32,167)   DRY( 32,168)   DRY( 32,169)   DRY( 32,170)   DRY( 32,171)   
    DRY( 32,172)   DRY( 32,173)   DRY( 32,174)   DRY( 32,175)   DRY( 32,176)   
    DRY( 32,177)   DRY( 32,178)   DRY( 32,179)   DRY( 32,180)   DRY( 32,181)   
    DRY( 32,182)   DRY( 32,183)   DRY( 32,184)   DRY( 32,185)   DRY( 32,186)   
    DRY( 32,187)   DRY( 32,188)   DRY( 32,189)   DRY( 32,190)   DRY( 32,191)   
    DRY( 32,192)   DRY( 32,193)   DRY( 32,194)   DRY( 32,195)   DRY( 32,196)   
    DRY( 32,197)   DRY( 32,198)   DRY( 32,199)   DRY( 32,200)   DRY( 32,201)   
    DRY( 32,202)   DRY( 32,203)   DRY( 32,204)   DRY( 32,205)   DRY( 32,206)   
    DRY( 32,207)   DRY( 32,208)   DRY( 32,209)   DRY( 32,210)   DRY( 32,211)   
    DRY( 32,212)   DRY( 32,213)   DRY( 32,214)   DRY( 32,215)   DRY( 32,216)   
    DRY( 32,217)   DRY( 32,218)   DRY( 32,219)   DRY( 32,220)   DRY( 33, 18)   
    DRY( 33, 19)   DRY( 33, 20)   DRY( 33, 21)   DRY( 33, 22)   DRY( 33, 23)   
    DRY( 33, 24)   DRY( 33, 25)   DRY( 33, 26)   DRY( 33, 27)   DRY( 33, 28)   
    DRY( 33, 29)   DRY( 33, 30)   DRY( 33, 31)   DRY( 33, 32)   DRY( 33, 39)   
    DRY( 33, 40)   DRY( 33, 41)   DRY( 33, 42)   DRY( 33, 43)   DRY( 33, 44)   
    DRY( 33, 45)   DRY( 33, 46)   DRY( 33, 47)   DRY( 33, 48)   DRY( 33, 49)   
    DRY( 33, 50)   DRY( 33, 51)   DRY( 33, 52)   DRY( 33, 53)   DRY( 33, 54)   
    DRY( 33, 55)   DRY( 33, 56)   DRY( 33, 57)   DRY( 33, 58)   DRY( 33, 59)   
    DRY( 33, 60)   DRY( 33, 61)   DRY( 33, 62)   DRY( 33, 63)   DRY( 33, 64)   
    DRY( 33, 65)   DRY( 33, 66)   DRY( 33, 67)   DRY( 33, 68)   DRY( 33, 69)   
    DRY( 33, 70)   DRY( 33, 71)   DRY( 33, 72)   DRY( 33, 73)   DRY( 33, 74)   
    DRY( 33, 75)   DRY( 33, 76)   DRY( 33, 77)   DRY( 33, 78)   DRY( 33, 79)   
    DRY( 33, 80)   DRY( 33, 81)   DRY( 33, 82)   DRY( 33, 83)   DRY( 33, 84)   
    DRY( 33, 85)   DRY( 33, 86)   DRY( 33, 87)   DRY( 33, 88)   DRY( 33, 89)   
    DRY( 33, 90)   DRY( 33, 91)   DRY( 33, 92)   DRY( 33, 93)   DRY( 33, 94)   
    DRY( 33, 95)   DRY( 33, 96)   DRY( 33, 97)   DRY( 33, 98)   DRY( 33, 99)   
    DRY( 33,100)   DRY( 33,101)   DRY( 33,102)   DRY( 33,103)   DRY( 33,104)   
    DRY( 33,105)   DRY( 33,106)   DRY( 33,107)   DRY( 33,108)   DRY( 33,109)   
    DRY( 33,110)   DRY( 33,111)   DRY( 33,112)   DRY( 33,113)   DRY( 33,114)   
    DRY( 33,115)   DRY( 33,116)   DRY( 33,117)   DRY( 33,118)   DRY( 33,119)   
    DRY( 33,120)   DRY( 33,121)   DRY( 33,122)   DRY( 33,123)   DRY( 33,124)   
    DRY( 33,125)   DRY( 33,126)   DRY( 33,127)   DRY( 33,128)   DRY( 33,129)   
    DRY( 33,130)   DRY( 33,131)   DRY( 33,132)   DRY( 33,133)   DRY( 33,134)   
    DRY( 33,135)   DRY( 33,136)   DRY( 33,137)   DRY( 33,138)   DRY( 33,139)   
    DRY( 33,140)   DRY( 33,141)   DRY( 33,142)   DRY( 33,143)   DRY( 33,144)   
    DRY( 33,145)   DRY( 33,146)   DRY( 33,147)   DRY( 33,148)   DRY( 33,149)   
    DRY( 33,150)   DRY( 33,151)   DRY( 33,152)   DRY( 33,153)   DRY( 33,154)   
    DRY( 33,155)   DRY( 33,156)   DRY( 33,157)   DRY( 33,158)   DRY( 33,159)   
    DRY( 33,160)   DRY( 33,161)   DRY( 33,162)   DRY( 33,163)   DRY( 33,164)   
    DRY( 33,165)   DRY( 33,166)   DRY( 33,167)   DRY( 33,168)   DRY( 33,169)   
    DRY( 33,170)   DRY( 33,171)   DRY( 33,172)   DRY( 33,173)   DRY( 33,174)   
    DRY( 33,175)   DRY( 33,176)   DRY( 33,177)   DRY( 33,178)   DRY( 33,179)   
    DRY( 33,180)   DRY( 33,181)   DRY( 33,182)   DRY( 33,183)   DRY( 33,184)   
    DRY( 33,185)   DRY( 33,186)   DRY( 33,187)   DRY( 33,188)   DRY( 33,189)   
    DRY( 33,190)   DRY( 33,191)   DRY( 33,192)   DRY( 33,193)   DRY( 33,194)   
    DRY( 33,195)   DRY( 33,196)   DRY( 33,197)   DRY( 33,198)   DRY( 33,199)   
    DRY( 33,200)   DRY( 33,201)   DRY( 33,202)   DRY( 33,203)   DRY( 33,204)   
    DRY( 33,205)   DRY( 33,206)   DRY( 33,207)   DRY( 33,208)   DRY( 33,209)   
    DRY( 33,210)   DRY( 33,211)   DRY( 33,212)   DRY( 33,213)   DRY( 33,214)   
    DRY( 33,215)   DRY( 33,216)   DRY( 33,217)   DRY( 33,218)   DRY( 33,219)   
    DRY( 33,220)   DRY( 34, 51)   DRY( 34, 52)   DRY( 34, 53)   DRY( 34, 54)   
    DRY( 34, 55)   DRY( 34, 56)   DRY( 34, 57)   DRY( 34, 58)   DRY( 34, 59)   
    DRY( 34, 60)   DRY( 34, 61)   DRY( 34, 62)   DRY( 34, 63)   DRY( 34, 64)   
    DRY( 34, 65)   DRY( 34, 66)   DRY( 34, 67)   DRY( 34, 68)   DRY( 34, 69)   
    DRY( 34, 70)   DRY( 34, 71)   DRY( 34, 72)   DRY( 34, 73)   DRY( 34, 74)   
    DRY( 34, 75)   DRY( 34, 76)   DRY( 34, 77)   DRY( 34, 78)   DRY( 34, 79)   
    DRY( 34, 80)   DRY( 34, 81)   DRY( 34, 82)   DRY( 34, 83)   DRY( 34, 84)   
    DRY( 34, 85)   DRY( 34, 86)   DRY( 34, 87)   DRY( 34, 88)   DRY( 34, 89)   
    DRY( 34, 90)   DRY( 34, 91)   DRY( 34, 92)   DRY( 34, 93)   DRY( 34, 94)   
    DRY( 34, 95)   DRY( 34, 96)   DRY( 34, 97)   DRY( 34, 98)   DRY( 34, 99)   
    DRY( 34,100)   DRY( 34,101)   DRY( 34,102)   DRY( 34,103)   DRY( 34,104)   
    DRY( 34,105)   DRY( 34,106)   DRY( 34,107)   DRY( 34,108)   DRY( 34,109)   
    DRY( 34,110)   DRY( 34,111)   DRY( 34,112)   DRY( 34,113)   DRY( 34,114)   
    DRY( 34,115)   DRY( 34,116)   DRY( 34,117)   DRY( 34,118)   DRY( 34,119)   
    DRY( 34,120)   DRY( 34,121)   DRY( 34,122)   DRY( 34,123)   DRY( 34,124)   
    DRY( 34,125)   DRY( 34,126)   DRY( 34,127)   DRY( 34,128)   DRY( 34,129)   
    DRY( 34,130)   DRY( 34,131)   DRY( 34,132)   DRY( 34,133)   DRY( 34,134)   
    DRY( 34,135)   DRY( 34,136)   DRY( 34,137)   DRY( 34,138)   DRY( 34,139)   
    DRY( 34,140)   DRY( 34,141)   DRY( 34,142)   DRY( 34,143)   DRY( 34,144)   
    DRY( 34,145)   DRY( 34,146)   DRY( 34,147)   DRY( 34,148)   DRY( 34,149)   
    DRY( 34,150)   DRY( 34,151)   DRY( 34,152)   DRY( 34,153)   DRY( 34,154)   
    DRY( 34,155)   DRY( 34,156)   DRY( 34,157)   DRY( 34,158)   DRY( 34,159)   
    DRY( 34,160)   DRY( 34,161)   DRY( 34,162)   DRY( 34,163)   DRY( 34,164)   
    DRY( 34,165)   DRY( 34,166)   DRY( 34,167)   DRY( 34,168)   DRY( 34,169)   
    DRY( 34,170)   DRY( 34,171)   DRY( 34,172)   DRY( 34,173)   DRY( 34,174)   
    DRY( 34,175)   DRY( 34,176)   DRY( 34,177)   DRY( 34,178)   DRY( 34,179)   
    DRY( 34,180)   DRY( 34,181)   DRY( 34,182)   DRY( 34,183)   DRY( 34,184)   
    DRY( 34,185)   DRY( 34,186)   DRY( 34,187)   DRY( 34,188)   DRY( 34,189)   
    DRY( 34,190)   DRY( 34,191)   DRY( 34,192)   DRY( 34,193)   DRY( 34,194)   
    DRY( 34,195)   DRY( 34,196)   DRY( 34,197)   DRY( 34,198)   DRY( 34,199)   
    DRY( 34,200)   DRY( 34,201)   DRY( 34,202)   DRY( 34,203)   DRY( 34,204)   
    DRY( 34,205)   DRY( 34,206)   DRY( 34,207)   DRY( 34,208)   DRY( 34,209)   
    DRY( 34,210)   DRY( 34,211)   DRY( 34,212)   DRY( 34,213)   DRY( 34,214)   
    DRY( 34,215)   DRY( 34,216)   DRY( 34,217)   DRY( 34,218)   DRY( 34,219)   
    DRY( 34,220)   DRY( 35, 58)   DRY( 35, 59)   DRY( 35, 60)   DRY( 35, 61)   
    DRY( 35, 62)   DRY( 35, 63)   DRY( 35, 64)   DRY( 35, 65)   DRY( 35, 66)   
    DRY( 35, 67)   DRY( 35, 68)   DRY( 35, 69)   DRY( 35, 70)   DRY( 35, 71)   
    DRY( 35, 72)   DRY( 35, 73)   DRY( 35, 74)   DRY( 35,114)   DRY( 35,115)   
    DRY( 35,116)   DRY( 35,117)   DRY( 35,118)   DRY( 35,119)   DRY( 35,120)   
    DRY( 35,121)   DRY( 35,122)   DRY( 35,123)   DRY( 35,124)   DRY( 35,125)   
    DRY( 35,126)   DRY( 35,127)   DRY( 35,128)   DRY( 35,129)   DRY( 35,130)   
    DRY( 35,131)   DRY( 35,132)   DRY( 35,133)   DRY( 35,134)   DRY( 35,135)   
    DRY( 35,136)   DRY( 35,137)   DRY( 35,138)   DRY( 35,139)   DRY( 35,140)   
    DRY( 35,141)   DRY( 35,142)   DRY( 35,143)   DRY( 35,144)   DRY( 35,145)   
    DRY( 35,146)   DRY( 35,147)   DRY( 35,148)   DRY( 35,149)   DRY( 35,150)   
    DRY( 35,151)   DRY( 35,152)   DRY( 35,153)   DRY( 35,154)   DRY( 35,155)   
    DRY( 35,156)   DRY( 35,157)   DRY( 35,158)   DRY( 35,159)   DRY( 35,160)   
    DRY( 35,161)   DRY( 35,162)   DRY( 35,163)   DRY( 35,164)   DRY( 35,165)   
    DRY( 35,166)   DRY( 35,167)   DRY( 35,168)   DRY( 35,169)   DRY( 35,170)   
    DRY( 35,171)   DRY( 35,172)   DRY( 35,173)   DRY( 35,174)   DRY( 35,175)   
    DRY( 35,176)   DRY( 35,177)   DRY( 35,178)   DRY( 35,179)   DRY( 35,180)   
    DRY( 35,181)   DRY( 35,182)   DRY( 35,183)   DRY( 35,184)   DRY( 35,185)   
    DRY( 35,186)   DRY( 35,187)   DRY( 35,188)   DRY( 35,189)   DRY( 35,190)   
    DRY( 35,191)   DRY( 35,192)   DRY( 35,193)   DRY( 35,194)   DRY( 35,195)   
    DRY( 35,196)   DRY( 35,197)   DRY( 35,198)   DRY( 35,199)   DRY( 35,200)   
    DRY( 35,201)   DRY( 35,202)   DRY( 35,203)   DRY( 35,204)   DRY( 35,205)   
    DRY( 35,206)   DRY( 35,207)   DRY( 35,208)   DRY( 35,209)   DRY( 35,210)   
    DRY( 35,211)   DRY( 35,212)   DRY( 35,213)   DRY( 35,214)   DRY( 35,215)   
    DRY( 35,216)   DRY( 35,217)   DRY( 35,218)   DRY( 35,219)   DRY( 35,220)   
    DRY( 36,127)   DRY( 36,128)   DRY( 36,129)   DRY( 36,130)   DRY( 36,131)   
    DRY( 36,132)   DRY( 36,133)   DRY( 36,134)   DRY( 36,135)   DRY( 36,136)   
    DRY( 36,137)   DRY( 36,138)   DRY( 36,139)   DRY( 36,140)   DRY( 36,141)   
    DRY( 36,142)   DRY( 36,143)   DRY( 36,144)   DRY( 36,145)   DRY( 36,146)   
    DRY( 36,147)   DRY( 36,148)   DRY( 36,149)   DRY( 36,150)   DRY( 36,151)   
    DRY( 36,152)   DRY( 36,153)   DRY( 36,154)   DRY( 36,155)   DRY( 36,156)   
    DRY( 36,157)   DRY( 36,158)   DRY( 36,159)   DRY( 36,160)   DRY( 36,161)   
    DRY( 36,162)   DRY( 36,163)   DRY( 36,164)   DRY( 36,165)   DRY( 36,166)   
    DRY( 36,167)   DRY( 36,168)   DRY( 36,169)   DRY( 36,170)   DRY( 36,171)   
    DRY( 36,172)   DRY( 36,173)   DRY( 36,174)   DRY( 36,175)   DRY( 36,176)   
    DRY( 36,177)   DRY( 36,178)   DRY( 36,179)   DRY( 36,180)   DRY( 36,181)   
    DRY( 36,182)   DRY( 36,183)   DRY( 36,184)   DRY( 36,185)   DRY( 36,186)   
    DRY( 36,187)   DRY( 36,188)   DRY( 36,189)   DRY( 36,190)   DRY( 36,191)   
    DRY( 36,192)   DRY( 36,193)   DRY( 36,194)   DRY( 36,195)   DRY( 36,196)   
    DRY( 36,197)   DRY( 36,198)   DRY( 36,199)   DRY( 36,200)   DRY( 36,201)   
    DRY( 36,202)   DRY( 36,203)   DRY( 36,204)   DRY( 36,205)   DRY( 36,206)   
    DRY( 36,207)   DRY( 36,212)   DRY( 36,213)   DRY( 36,214)   DRY( 36,215)   
    DRY( 36,216)   DRY( 36,217)   DRY( 36,218)   DRY( 36,219)   DRY( 36,220)   
    DRY( 37,187)   DRY( 37,188)   DRY( 37,189)   DRY( 37,190)   DRY( 37,191)   
    DRY( 37,192)   DRY( 37,193)   DRY( 37,194)   DRY( 37,201)   DRY( 37,202)   
    DRY( 37,203)   DRY( 37,204)   DRY( 37,214)   DRY( 37,215)   DRY( 37,216)   
    DRY( 37,217)   DRY( 37,218)   DRY( 37,219)   DRY( 37,220)   DRY( 38,216)   
    DRY( 38,217)   DRY( 38,218)   DRY( 38,219)   DRY( 38,220)   DRY( 39,217)   
    DRY( 39,218)   DRY( 39,219)   DRY( 39,220)   DRY( 40,219)   DRY( 40,220)   

 CELL CONVERSIONS FOR ITER.=  3  LAYER= 14  STEP=  1  PERIOD=   1   (ROW,COL)
    DRY( 27,  1)   DRY( 27,  2)   DRY( 27,  3)   DRY( 27,  4)   DRY( 27,  5)   
    DRY( 27,  6)   DRY( 27,  7)   DRY( 27,  8)   DRY( 27,  9)   DRY( 27, 10)   
    DRY( 27, 11)   DRY( 27, 12)   DRY( 27, 13)   DRY( 27, 14)   DRY( 27, 15)   
    DRY( 27, 16)   DRY( 27, 17)   DRY( 27, 18)   DRY( 27, 19)   DRY( 27, 20)   
    DRY( 27, 21)   DRY( 27, 22)   DRY( 27, 23)   DRY( 27, 24)   DRY( 27, 25)   
    DRY( 27, 26)   DRY( 27, 27)   DRY( 27, 28)   DRY( 28,  1)   DRY( 28,  2)   
    DRY( 28,  3)   DRY( 28,  4)   DRY( 28,  5)   DRY( 28,  6)   DRY( 28,  7)   
    DRY( 28,  8)   DRY( 28,  9)   DRY( 28, 10)   DRY( 28, 11)   DRY( 28, 12)   
    DRY( 28, 13)   DRY( 28, 14)   DRY( 28, 15)   DRY( 28, 16)   DRY( 28, 17)   
    DRY( 28, 18)   DRY( 28, 19)   DRY( 28, 20)   DRY( 28, 21)   DRY( 28, 22)   
    DRY( 28, 23)   DRY( 28, 24)   DRY( 28, 25)   DRY( 28, 26)   DRY( 28, 27)   
    DRY( 28, 28)   DRY( 28, 29)   DRY( 28, 30)   DRY( 28, 31)   DRY( 28, 32)   
    DRY( 28, 33)   DRY( 28, 34)   DRY( 28, 35)   DRY( 28, 36)   DRY( 28, 37)   
    DRY( 28, 38)   DRY( 28, 39)   DRY( 28, 40)   DRY( 28, 41)   DRY( 28, 42)   
    DRY( 28, 43)   DRY( 28, 44)   DRY( 28, 45)   DRY( 28, 46)   DRY( 28, 47)   
    DRY( 28, 48)   DRY( 28, 49)   DRY( 28, 50)   DRY( 28, 51)   DRY( 28, 52)   
    DRY( 28, 53)   DRY( 28, 54)   DRY( 28, 55)   DRY( 28, 56)   DRY( 28, 57)   
    DRY( 28, 58)   DRY( 28, 59)   DRY( 28, 60)   DRY( 28, 61)   DRY( 28, 62)   
    DRY( 28, 63)   DRY( 28, 64)   DRY( 28, 65)   DRY( 28, 66)   DRY( 28, 67)   
    DRY( 28, 68)   DRY( 28, 69)   DRY( 28, 70)   DRY( 28, 71)   DRY( 28, 72)   
    DRY( 28, 73)   DRY( 28, 74)   DRY( 28, 75)   DRY( 28, 76)   DRY( 28, 77)   
    DRY( 28, 78)   DRY( 28, 79)   DRY( 28, 80)   DRY( 28, 81)   DRY( 28, 82)   
    DRY( 28, 83)   DRY( 28, 84)   DRY( 28, 85)   DRY( 28, 86)   DRY( 28, 87)   
    DRY( 28, 88)   DRY( 28, 89)   DRY( 28, 90)   DRY( 28, 91)   DRY( 28, 92)   
    DRY( 28, 93)   DRY( 28, 94)   DRY( 28, 95)   DRY( 28, 96)   DRY( 28, 97)   
    DRY( 28, 98)   DRY( 28, 99)   DRY( 28,100)   DRY( 28,101)   DRY( 28,102)   
    DRY( 28,103)   DRY( 28,104)   DRY( 28,105)   DRY( 28,106)   DRY( 28,107)   
    DRY( 28,108)   DRY( 28,109)   DRY( 28,110)   DRY( 28,111)   DRY( 28,112)   
    DRY( 28,113)   DRY( 28,114)   DRY( 28,115)   DRY( 28,116)   DRY( 28,117)   
    DRY( 28,118)   DRY( 28,119)   DRY( 28,120)   DRY( 28,121)   DRY( 28,122)   
    DRY( 28,123)   DRY( 28,124)   DRY( 28,125)   DRY( 28,126)   DRY( 28,127)   
    DRY( 28,128)   DRY( 28,129)   DRY( 28,130)   DRY( 28,131)   DRY( 28,132)   
    DRY( 28,133)   DRY( 28,134)   DRY( 28,135)   DRY( 28,136)   DRY( 28,137)   
    DRY( 28,138)   DRY( 28,139)   DRY( 28,140)   DRY( 28,141)   DRY( 28,142)   
    DRY( 28,143)   DRY( 28,144)   DRY( 28,145)   DRY( 28,146)   DRY( 28,147)   
    DRY( 28,148)   DRY( 28,149)   DRY( 28,150)   DRY( 28,151)   DRY( 28,152)   
    DRY( 28,153)   DRY( 28,154)   DRY( 28,155)   DRY( 28,156)   DRY( 28,157)   
    DRY( 28,158)   DRY( 28,159)   DRY( 28,160)   DRY( 28,161)   DRY( 28,162)   
    DRY( 28,163)   DRY( 28,164)   DRY( 28,165)   DRY( 28,166)   DRY( 28,167)   
    DRY( 28,168)   DRY( 28,169)   DRY( 28,170)   DRY( 28,171)   DRY( 28,172)   
    DRY( 28,173)   DRY( 28,174)   DRY( 28,175)   DRY( 28,176)   DRY( 28,177)   
    DRY( 28,178)   DRY( 28,179)   DRY( 28,180)   DRY( 28,181)   DRY( 28,182)   
    DRY( 28,183)   DRY( 28,184)   DRY( 28,185)   DRY( 28,186)   DRY( 28,187)   
    DRY( 28,188)   DRY( 28,189)   DRY( 28,190)   DRY( 28,191)   DRY( 28,192)   
    DRY( 28,193)   DRY( 28,194)   DRY( 28,195)   DRY( 28,196)   DRY( 28,197)   
    DRY( 28,198)   DRY( 28,199)   DRY( 28,200)   DRY( 28,201)   DRY( 28,202)   
    DRY( 28,203)   DRY( 28,204)   DRY( 28,205)   DRY( 28,206)   DRY( 28,207)   
    DRY( 28,208)   DRY( 28,209)   DRY( 28,210)   DRY( 28,211)   DRY( 28,212)   
    DRY( 28,213)   DRY( 28,214)   DRY( 28,215)   DRY( 28,216)   DRY( 28,217)   
    DRY( 28,218)   DRY( 28,219)   DRY( 28,220)   DRY( 29,  1)   DRY( 29,  2)   
    DRY( 29,  3)   DRY( 29,  4)   DRY( 29,  5)   DRY( 29,  6)   DRY( 29,  7)   
    DRY( 29,  8)   DRY( 29,  9)   DRY( 29, 10)   DRY( 29, 11)   DRY( 29, 12)   
    DRY( 29, 13)   DRY( 29, 14)   DRY( 29, 15)   DRY( 29, 16)   DRY( 29, 17)   
    DRY( 29, 18)   DRY( 29, 19)   DRY( 29, 20)   DRY( 29, 21)   DRY( 29, 22)   
    DRY( 29, 23)   DRY( 29, 24)   DRY( 29, 25)   DRY( 29, 26)   DRY( 29, 27)   
    DRY( 29, 28)   DRY( 29, 29)   DRY( 29, 30)   DRY( 29, 31)   DRY( 29, 32)   
    DRY( 29, 33)   DRY( 29, 34)   DRY( 29, 35)   DRY( 29, 36)   DRY( 29, 37)   
    DRY( 29, 38)   DRY( 29, 39)   DRY( 29, 40)   DRY( 29, 41)   DRY( 29, 42)   
    DRY( 29, 43)   DRY( 29, 44)   DRY( 29, 45)   DRY( 29, 46)   DRY( 29, 47)   
    DRY( 29, 48)   DRY( 29, 49)   DRY( 29, 50)   DRY( 29, 51)   DRY( 29, 52)   
    DRY( 29, 53)   DRY( 29, 54)   DRY( 29, 55)   DRY( 29, 56)   DRY( 29, 57)   
    DRY( 29, 58)   DRY( 29, 59)   DRY( 29, 60)   DRY( 29, 61)   DRY( 29, 62)   
    DRY( 29, 63)   DRY( 29, 64)   DRY( 29, 65)   DRY( 29, 66)   DRY( 29, 67)   
    DRY( 29, 68)   DRY( 29, 69)   DRY( 29, 70)   DRY( 29, 71)   DRY( 29, 72)   
    DRY( 29, 73)   DRY( 29, 74)   DRY( 29, 75)   DRY( 29, 76)   DRY( 29, 77)   
    DRY( 29, 78)   DRY( 29, 79)   DRY( 29, 80)   DRY( 29, 81)   DRY( 29, 82)   
    DRY( 29, 83)   DRY( 29, 84)   DRY( 29, 85)   DRY( 29, 86)   DRY( 29, 87)   
    DRY( 29, 88)   DRY( 29, 89)   DRY( 29, 90)   DRY( 29, 91)   DRY( 29, 92)   
    DRY( 29, 93)   DRY( 29, 94)   DRY( 29, 95)   DRY( 29, 96)   DRY( 29, 97)   
    DRY( 29, 98)   DRY( 29, 99)   DRY( 29,100)   DRY( 29,101)   DRY( 29,102)   
    DRY( 29,103)   DRY( 29,104)   DRY( 29,105)   DRY( 29,106)   DRY( 29,107)   
    DRY( 29,108)   DRY( 29,109)   DRY( 29,110)   DRY( 29,111)   DRY( 29,112)   
    DRY( 29,113)   DRY( 29,114)   DRY( 29,115)   DRY( 29,116)   DRY( 29,117)   
    DRY( 29,118)   DRY( 29,119)   DRY( 29,120)   DRY( 29,121)   DRY( 29,122)   
    DRY( 29,123)   DRY( 29,124)   DRY( 29,125)   DRY( 29,126)   DRY( 29,127)   
    DRY( 29,128)   DRY( 29,129)   DRY( 29,130)   DRY( 29,131)   DRY( 29,132)   
    DRY( 29,133)   DRY( 29,134)   DRY( 29,135)   DRY( 29,136)   DRY( 29,137)   
    DRY( 29,138)   DRY( 29,139)   DRY( 29,140)   DRY( 29,141)   DRY( 29,142)   
    DRY( 29,143)   DRY( 29,144)   DRY( 29,145)   DRY( 29,146)   DRY( 29,147)   
    DRY( 29,148)   DRY( 29,149)   DRY( 29,150)   DRY( 29,151)   DRY( 29,152)   
    DRY( 29,153)   DRY( 29,154)   DRY( 29,155)   DRY( 29,156)   DRY( 29,157)   
    DRY( 29,158)   DRY( 29,159)   DRY( 29,160)   DRY( 29,161)   DRY( 29,162)   
    DRY( 29,163)   DRY( 29,164)   DRY( 29,165)   DRY( 29,166)   DRY( 29,167)   
    DRY( 29,168)   DRY( 29,169)   DRY( 29,170)   DRY( 29,171)   DRY( 29,172)   
    DRY( 29,173)   DRY( 29,174)   DRY( 29,175)   DRY( 29,176)   DRY( 29,177)   
    DRY( 29,178)   DRY( 29,179)   DRY( 29,180)   DRY( 29,181)   DRY( 29,182)   
    DRY( 29,183)   DRY( 29,184)   DRY( 29,185)   DRY( 29,186)   DRY( 29,187)   
    DRY( 29,188)   DRY( 29,189)   DRY( 29,190)   DRY( 29,191)   DRY( 29,192)   
    DRY( 29,193)   DRY( 29,194)   DRY( 29,195)   DRY( 29,196)   DRY( 29,197)   
    DRY( 29,198)   DRY( 29,199)   DRY( 29,200)   DRY( 29,201)   DRY( 29,202)   
    DRY( 29,203)   DRY( 29,204)   DRY( 29,205)   DRY( 29,206)   DRY( 29,207)   
    DRY( 29,208)   DRY( 29,209)   DRY( 29,210)   DRY( 29,211)   DRY( 29,212)   
    DRY( 29,213)   DRY( 29,214)   DRY( 29,215)   DRY( 29,216)   DRY( 29,217)   
    DRY( 29,218)   DRY( 29,219)   DRY( 29,220)   DRY( 30,  1)   DRY( 30,  2)   
    DRY( 30,  3)   DRY( 30,  4)   DRY( 30,  5)   DRY( 30,  6)   DRY( 30,  7)   
    DRY( 30,  8)   DRY( 30,  9)   DRY( 30, 10)   DRY( 30, 11)   DRY( 30, 12)   
    DRY( 30, 13)   DRY( 30, 14)   DRY( 30, 15)   DRY( 30, 16)   DRY( 30, 17)   
    DRY( 30, 18)   DRY( 30, 19)   DRY( 30, 20)   DRY( 30, 21)   DRY( 30, 22)   
    DRY( 30, 23)   DRY( 30, 24)   DRY( 30, 25)   DRY( 30, 26)   DRY( 30, 27)   
    DRY( 30, 28)   DRY( 30, 29)   DRY( 30, 30)   DRY( 30, 31)   DRY( 30, 32)   
    DRY( 30, 33)   DRY( 30, 34)   DRY( 30, 35)   DRY( 30, 36)   DRY( 30, 37)   
    DRY( 30, 38)   DRY( 30, 39)   DRY( 30, 40)   DRY( 30, 41)   DRY( 30, 42)   
    DRY( 30, 43)   DRY( 30, 44)   DRY( 30, 45)   DRY( 30, 46)   DRY( 30, 47)   
    DRY( 30, 48)   DRY( 30, 49)   DRY( 30, 50)   DRY( 30, 51)   DRY( 30, 52)   
    DRY( 30, 53)   DRY( 30, 54)   DRY( 30, 55)   DRY( 30, 56)   DRY( 30, 57)   
    DRY( 30, 58)   DRY( 30, 59)   DRY( 30, 60)   DRY( 30, 61)   DRY( 30, 62)   
    DRY( 30, 63)   DRY( 30, 64)   DRY( 30, 65)   DRY( 30, 66)   DRY( 30, 67)   
    DRY( 30, 68)   DRY( 30, 69)   DRY( 30, 70)   DRY( 30, 71)   DRY( 30, 72)   
    DRY( 30, 73)   DRY( 30, 74)   DRY( 30, 75)   DRY( 30, 76)   DRY( 30, 77)   
    DRY( 30, 78)   DRY( 30, 79)   DRY( 30, 80)   DRY( 30, 81)   DRY( 30, 82)   
    DRY( 30, 83)   DRY( 30, 84)   DRY( 30, 85)   DRY( 30, 86)   DRY( 30, 87)   
    DRY( 30, 88)   DRY( 30, 89)   DRY( 30, 90)   DRY( 30, 91)   DRY( 30, 92)   
    DRY( 30, 93)   DRY( 30, 94)   DRY( 30, 95)   DRY( 30, 96)   DRY( 30, 97)   
    DRY( 30, 98)   DRY( 30, 99)   DRY( 30,100)   DRY( 30,101)   DRY( 30,102)   
    DRY( 30,103)   DRY( 30,104)   DRY( 30,105)   DRY( 30,106)   DRY( 30,107)   
    DRY( 30,108)   DRY( 30,109)   DRY( 30,110)   DRY( 30,111)   DRY( 30,112)   
    DRY( 30,113)   DRY( 30,114)   DRY( 30,115)   DRY( 30,116)   DRY( 30,117)   
    DRY( 30,118)   DRY( 30,119)   DRY( 30,120)   DRY( 30,121)   DRY( 30,122)   
    DRY( 30,123)   DRY( 30,124)   DRY( 30,125)   DRY( 30,126)   DRY( 30,127)   
    DRY( 30,128)   DRY( 30,129)   DRY( 30,130)   DRY( 30,131)   DRY( 30,132)   
    DRY( 30,133)   DRY( 30,134)   DRY( 30,135)   DRY( 30,136)   DRY( 30,137)   
    DRY( 30,138)   DRY( 30,139)   DRY( 30,140)   DRY( 30,141)   DRY( 30,142)   
    DRY( 30,143)   DRY( 30,144)   DRY( 30,145)   DRY( 30,146)   DRY( 30,147)   
    DRY( 30,148)   DRY( 30,149)   DRY( 30,150)   DRY( 30,151)   DRY( 30,152)   
    DRY( 30,153)   DRY( 30,154)   DRY( 30,155)   DRY( 30,156)   DRY( 30,157)   
    DRY( 30,158)   DRY( 30,159)   DRY( 30,160)   DRY( 30,161)   DRY( 30,162)   
    DRY( 30,163)   DRY( 30,164)   DRY( 30,165)   DRY( 30,166)   DRY( 30,167)   
    DRY( 30,168)   DRY( 30,169)   DRY( 30,170)   DRY( 30,171)   DRY( 30,172)   
    DRY( 30,173)   DRY( 30,174)   DRY( 30,175)   DRY( 30,176)   DRY( 30,177)   
    DRY( 30,178)   DRY( 30,179)   DRY( 30,180)   DRY( 30,181)   DRY( 30,182)   
    DRY( 30,183)   DRY( 30,184)   DRY( 30,185)   DRY( 30,186)   DRY( 30,187)   
    DRY( 30,188)   DRY( 30,189)   DRY( 30,190)   DRY( 30,191)   DRY( 30,192)   
    DRY( 30,193)   DRY( 30,194)   DRY( 30,195)   DRY( 30,196)   DRY( 30,197)   
    DRY( 30,198)   DRY( 30,199)   DRY( 30,200)   DRY( 30,201)   DRY( 30,202)   
    DRY( 30,203)   DRY( 30,204)   DRY( 30,205)   DRY( 30,206)   DRY( 30,207)   
    DRY( 30,208)   DRY( 30,209)   DRY( 30,210)   DRY( 30,211)   DRY( 30,212)   
    DRY( 30,213)   DRY( 30,214)   DRY( 30,215)   DRY( 30,216)   DRY( 30,217)   
    DRY( 30,218)   DRY( 30,219)   DRY( 30,220)   DRY( 31,  1)   DRY( 31,  2)   
    DRY( 31,  3)   DRY( 31,  4)   DRY( 31,  5)   DRY( 31,  6)   DRY( 31,  7)   
    DRY( 31,  8)   DRY( 31,  9)   DRY( 31, 10)   DRY( 31, 11)   DRY( 31, 12)   
    DRY( 31, 13)   DRY( 31, 14)   DRY( 31, 15)   DRY( 31, 16)   DRY( 31, 17)   
    DRY( 31, 18)   DRY( 31, 19)   DRY( 31, 20)   DRY( 31, 21)   DRY( 31, 22)   
    DRY( 31, 23)   DRY( 31, 24)   DRY( 31, 25)   DRY( 31, 26)   DRY( 31, 27)   
    DRY( 31, 28)   DRY( 31, 29)   DRY( 31, 30)   DRY( 31, 31)   DRY( 31, 32)   
    DRY( 31, 33)   DRY( 31, 34)   DRY( 31, 35)   DRY( 31, 36)   DRY( 31, 37)   
    DRY( 31, 38)   DRY( 31, 39)   DRY( 31, 40)   DRY( 31, 41)   DRY( 31, 42)   
    DRY( 31, 43)   DRY( 31, 44)   DRY( 31, 45)   DRY( 31, 46)   DRY( 31, 47)   
    DRY( 31, 48)   DRY( 31, 49)   DRY( 31, 50)   DRY( 31, 51)   DRY( 31, 52)   
    DRY( 31, 53)   DRY( 31, 54)   DRY( 31, 55)   DRY( 31, 56)   DRY( 31, 57)   
    DRY( 31, 58)   DRY( 31, 59)   DRY( 31, 60)   DRY( 31, 61)   DRY( 31, 62)   
    DRY( 31, 63)   DRY( 31, 64)   DRY( 31, 65)   DRY( 31, 66)   DRY( 31, 67)   
    DRY( 31, 68)   DRY( 31, 69)   DRY( 31, 70)   DRY( 31, 71)   DRY( 31, 72)   
    DRY( 31, 73)   DRY( 31, 74)   DRY( 31, 75)   DRY( 31, 76)   DRY( 31, 77)   
    DRY( 31, 78)   DRY( 31, 79)   DRY( 31, 80)   DRY( 31, 81)   DRY( 31, 82)   
    DRY( 31, 83)   DRY( 31, 84)   DRY( 31, 85)   DRY( 31, 86)   DRY( 31, 87)   
    DRY( 31, 88)   DRY( 31, 89)   DRY( 31, 90)   DRY( 31, 91)   DRY( 31, 92)   
    DRY( 31, 93)   DRY( 31, 94)   DRY( 31, 95)   DRY( 31, 96)   DRY( 31, 97)   
    DRY( 31, 98)   DRY( 31, 99)   DRY( 31,100)   DRY( 31,101)   DRY( 31,102)   
    DRY( 31,103)   DRY( 31,104)   DRY( 31,105)   DRY( 31,106)   DRY( 31,107)   
    DRY( 31,108)   DRY( 31,109)   DRY( 31,110)   DRY( 31,111)   DRY( 31,112)   
    DRY( 31,113)   DRY( 31,114)   DRY( 31,115)   DRY( 31,116)   DRY( 31,117)   
    DRY( 31,118)   DRY( 31,119)   DRY( 31,120)   DRY( 31,121)   DRY( 31,122)   
    DRY( 31,123)   DRY( 31,124)   DRY( 31,125)   DRY( 31,126)   DRY( 31,127)   
    DRY( 31,128)   DRY( 31,129)   DRY( 31,130)   DRY( 31,131)   DRY( 31,132)   
    DRY( 31,133)   DRY( 31,134)   DRY( 31,135)   DRY( 31,136)   DRY( 31,137)   
    DRY( 31,138)   DRY( 31,139)   DRY( 31,140)   DRY( 31,141)   DRY( 31,142)   
    DRY( 31,143)   DRY( 31,144)   DRY( 31,145)   DRY( 31,146)   DRY( 31,147)   
    DRY( 31,148)   DRY( 31,149)   DRY( 31,150)   DRY( 31,151)   DRY( 31,152)   
    DRY( 31,153)   DRY( 31,154)   DRY( 31,155)   DRY( 31,156)   DRY( 31,157)   
    DRY( 31,158)   DRY( 31,159)   DRY( 31,160)   DRY( 31,161)   DRY( 31,162)   
    DRY( 31,163)   DRY( 31,164)   DRY( 31,165)   DRY( 31,166)   DRY( 31,167)   
    DRY( 31,168)   DRY( 31,169)   DRY( 31,170)   DRY( 31,171)   DRY( 31,172)   
    DRY( 31,173)   DRY( 31,174)   DRY( 31,175)   DRY( 31,176)   DRY( 31,177)   
    DRY( 31,178)   DRY( 31,179)   DRY( 31,180)   DRY( 31,181)   DRY( 31,182)   
    DRY( 31,183)   DRY( 31,184)   DRY( 31,185)   DRY( 31,186)   DRY( 31,187)   
    DRY( 31,188)   DRY( 31,189)   DRY( 31,190)   DRY( 31,191)   DRY( 31,192)   
    DRY( 31,193)   DRY( 31,194)   DRY( 31,195)   DRY( 31,196)   DRY( 31,197)   
    DRY( 31,198)   DRY( 31,199)   DRY( 31,200)   DRY( 31,201)   DRY( 31,202)   
    DRY( 31,203)   DRY( 31,204)   DRY( 31,205)   DRY( 31,206)   DRY( 31,207)   
    DRY( 31,208)   DRY( 31,209)   DRY( 31,210)   DRY( 31,211)   DRY( 31,212)   
    DRY( 31,213)   DRY( 31,214)   DRY( 31,215)   DRY( 31,216)   DRY( 31,217)   
    DRY( 31,218)   DRY( 31,219)   DRY( 31,220)   DRY( 32,  1)   DRY( 32,  2)   
    DRY( 32,  3)   DRY( 32,  4)   DRY( 32,  5)   DRY( 32,  6)   DRY( 32,  7)   
    DRY( 32,  8)   DRY( 32,  9)   DRY( 32, 10)   DRY( 32, 11)   DRY( 32, 12)   
    DRY( 32, 13)   DRY( 32, 14)   DRY( 32, 15)   DRY( 32, 16)   DRY( 32, 17)   
    DRY( 32, 18)   DRY( 32, 19)   DRY( 32, 20)   DRY( 32, 21)   DRY( 32, 22)   
    DRY( 32, 23)   DRY( 32, 24)   DRY( 32, 25)   DRY( 32, 26)   DRY( 32, 27)   
    DRY( 32, 28)   DRY( 32, 29)   DRY( 32, 30)   DRY( 32, 31)   DRY( 32, 32)   
    DRY( 32, 33)   DRY( 32, 34)   DRY( 32, 35)   DRY( 32, 36)   DRY( 32, 37)   
    DRY( 32, 38)   DRY( 32, 39)   DRY( 32, 40)   DRY( 32, 41)   DRY( 32, 42)   
    DRY( 32, 43)   DRY( 32, 44)   DRY( 32, 45)   DRY( 32, 46)   DRY( 32, 47)   
    DRY( 32, 48)   DRY( 32, 49)   DRY( 32, 50)   DRY( 32, 51)   DRY( 32, 52)   
    DRY( 32, 53)   DRY( 32, 54)   DRY( 32, 55)   DRY( 32, 56)   DRY( 32, 57)   
    DRY( 32, 58)   DRY( 32, 59)   DRY( 32, 60)   DRY( 32, 61)   DRY( 32, 62)   
    DRY( 32, 63)   DRY( 32, 64)   DRY( 32, 65)   DRY( 32, 66)   DRY( 32, 67)   
    DRY( 32, 68)   DRY( 32, 69)   DRY( 32, 70)   DRY( 32, 71)   DRY( 32, 72)   
    DRY( 32, 73)   DRY( 32, 74)   DRY( 32, 75)   DRY( 32, 76)   DRY( 32, 77)   
    DRY( 32, 78)   DRY( 32, 79)   DRY( 32, 80)   DRY( 32, 81)   DRY( 32, 82)   
    DRY( 32, 83)   DRY( 32, 84)   DRY( 32, 85)   DRY( 32, 86)   DRY( 32, 87)   
    DRY( 32, 88)   DRY( 32, 89)   DRY( 32, 90)   DRY( 32, 91)   DRY( 32, 92)   
    DRY( 32, 93)   DRY( 32, 94)   DRY( 32, 95)   DRY( 32, 96)   DRY( 32, 97)   
    DRY( 32, 98)   DRY( 32, 99)   DRY( 32,100)   DRY( 32,101)   DRY( 32,102)   
    DRY( 32,103)   DRY( 32,104)   DRY( 32,105)   DRY( 32,106)   DRY( 32,107)   
    DRY( 32,108)   DRY( 32,109)   DRY( 32,110)   DRY( 32,111)   DRY( 32,112)   
    DRY( 32,113)   DRY( 32,114)   DRY( 32,115)   DRY( 32,116)   DRY( 32,117)   
    DRY( 32,118)   DRY( 32,119)   DRY( 32,120)   DRY( 32,121)   DRY( 32,122)   
    DRY( 32,123)   DRY( 32,124)   DRY( 32,125)   DRY( 32,126)   DRY( 32,127)   
    DRY( 32,128)   DRY( 32,129)   DRY( 32,130)   DRY( 32,131)   DRY( 32,132)   
    DRY( 32,133)   DRY( 32,134)   DRY( 32,135)   DRY( 32,136)   DRY( 32,137)   
    DRY( 32,138)   DRY( 32,139)   DRY( 32,140)   DRY( 32,141)   DRY( 32,142)   
    DRY( 32,143)   DRY( 32,144)   DRY( 32,145)   DRY( 32,146)   DRY( 32,147)   
    DRY( 32,148)   DRY( 32,149)   DRY( 32,150)   DRY( 32,151)   DRY( 32,152)   
    DRY( 32,153)   DRY( 32,154)   DRY( 32,155)   DRY( 32,156)   DRY( 32,157)   
    DRY( 32,158)   DRY( 32,159)   DRY( 32,160)   DRY( 32,161)   DRY( 32,162)   
    DRY( 32,163)   DRY( 32,164)   DRY( 32,165)   DRY( 32,166)   DRY( 32,167)   
    DRY( 32,168)   DRY( 32,169)   DRY( 32,170)   DRY( 32,171)   DRY( 32,172)   
    DRY( 32,173)   DRY( 32,174)   DRY( 32,175)   DRY( 32,176)   DRY( 32,177)   
    DRY( 32,178)   DRY( 32,179)   DRY( 32,180)   DRY( 32,181)   DRY( 32,182)   
    DRY( 32,183)   DRY( 32,184)   DRY( 32,185)   DRY( 32,186)   DRY( 32,187)   
    DRY( 32,188)   DRY( 32,189)   DRY( 32,190)   DRY( 32,191)   DRY( 32,192)   
    DRY( 32,193)   DRY( 32,194)   DRY( 32,195)   DRY( 32,196)   DRY( 32,197)   
    DRY( 32,198)   DRY( 32,199)   DRY( 32,200)   DRY( 32,201)   DRY( 32,202)   
    DRY( 32,203)   DRY( 32,204)   DRY( 32,205)   DRY( 32,206)   DRY( 32,207)   
    DRY( 32,208)   DRY( 32,209)   DRY( 32,210)   DRY( 32,211)   DRY( 32,212)   
    DRY( 32,213)   DRY( 32,214)   DRY( 32,215)   DRY( 32,216)   DRY( 32,217)   
    DRY( 32,218)   DRY( 32,219)   DRY( 32,220)   DRY( 33,  3)   DRY( 33,  4)   
    DRY( 33,  5)   DRY( 33,  6)   DRY( 33,  7)   DRY( 33,  8)   DRY( 33,  9)   
    DRY( 33, 10)   DRY( 33, 11)   DRY( 33, 12)   DRY( 33, 13)   DRY( 33, 14)   
    DRY( 33, 15)   DRY( 33, 16)   DRY( 33, 17)   DRY( 33, 18)   DRY( 33, 19)   
    DRY( 33, 20)   DRY( 33, 21)   DRY( 33, 22)   DRY( 33, 23)   DRY( 33, 24)   
    DRY( 33, 25)   DRY( 33, 26)   DRY( 33, 27)   DRY( 33, 28)   DRY( 33, 29)   
    DRY( 33, 30)   DRY( 33, 31)   DRY( 33, 32)   DRY( 33, 33)   DRY( 33, 34)   
    DRY( 33, 35)   DRY( 33, 36)   DRY( 33, 37)   DRY( 33, 38)   DRY( 33, 39)   
    DRY( 33, 40)   DRY( 33, 41)   DRY( 33, 42)   DRY( 33, 43)   DRY( 33, 44)   
    DRY( 33, 45)   DRY( 33, 46)   DRY( 33, 47)   DRY( 33, 48)   DRY( 33, 49)   
    DRY( 33, 50)   DRY( 33, 51)   DRY( 33, 52)   DRY( 33, 53)   DRY( 33, 54)   
    DRY( 33, 55)   DRY( 33, 56)   DRY( 33, 57)   DRY( 33, 58)   DRY( 33, 59)   
    DRY( 33, 60)   DRY( 33, 61)   DRY( 33, 62)   DRY( 33, 63)   DRY( 33, 64)   
    DRY( 33, 65)   DRY( 33, 66)   DRY( 33, 67)   DRY( 33, 68)   DRY( 33, 69)   
    DRY( 33, 70)   DRY( 33, 71)   DRY( 33, 72)   DRY( 33, 73)   DRY( 33, 74)   
    DRY( 33, 75)   DRY( 33, 76)   DRY( 33, 77)   DRY( 33, 78)   DRY( 33, 79)   
    DRY( 33, 80)   DRY( 33, 81)   DRY( 33, 82)   DRY( 33, 83)   DRY( 33, 84)   
    DRY( 33, 85)   DRY( 33, 86)   DRY( 33, 87)   DRY( 33, 88)   DRY( 33, 89)   
    DRY( 33, 90)   DRY( 33, 91)   DRY( 33, 92)   DRY( 33, 93)   DRY( 33, 94)   
    DRY( 33, 95)   DRY( 33, 96)   DRY( 33, 97)   DRY( 33, 98)   DRY( 33, 99)   
    DRY( 33,100)   DRY( 33,101)   DRY( 33,102)   DRY( 33,103)   DRY( 33,104)   
    DRY( 33,105)   DRY( 33,106)   DRY( 33,107)   DRY( 33,108)   DRY( 33,109)   
    DRY( 33,110)   DRY( 33,111)   DRY( 33,112)   DRY( 33,113)   DRY( 33,114)   
    DRY( 33,115)   DRY( 33,116)   DRY( 33,117)   DRY( 33,118)   DRY( 33,119)   
    DRY( 33,120)   DRY( 33,121)   DRY( 33,122)   DRY( 33,123)   DRY( 33,124)   
    DRY( 33,125)   DRY( 33,126)   DRY( 33,127)   DRY( 33,128)   DRY( 33,129)   
    DRY( 33,130)   DRY( 33,131)   DRY( 33,132)   DRY( 33,133)   DRY( 33,134)   
    DRY( 33,135)   DRY( 33,136)   DRY( 33,137)   DRY( 33,138)   DRY( 33,139)   
    DRY( 33,140)   DRY( 33,141)   DRY( 33,142)   DRY( 33,143)   DRY( 33,144)   
    DRY( 33,145)   DRY( 33,146)   DRY( 33,147)   DRY( 33,148)   DRY( 33,149)   
    DRY( 33,150)   DRY( 33,151)   DRY( 33,152)   DRY( 33,153)   DRY( 33,154)   
    DRY( 33,155)   DRY( 33,156)   DRY( 33,157)   DRY( 33,158)   DRY( 33,159)   
    DRY( 33,160)   DRY( 33,161)   DRY( 33,162)   DRY( 33,163)   DRY( 33,164)   
    DRY( 33,165)   DRY( 33,166)   DRY( 33,167)   DRY( 33,168)   DRY( 33,169)   
    DRY( 33,170)   DRY( 33,171)   DRY( 33,172)   DRY( 33,173)   DRY( 33,174)   
    DRY( 33,175)   DRY( 33,176)   DRY( 33,177)   DRY( 33,178)   DRY( 33,179)   
    DRY( 33,180)   DRY( 33,181)   DRY( 33,182)   DRY( 33,183)   DRY( 33,184)   
    DRY( 33,185)   DRY( 33,186)   DRY( 33,187)   DRY( 33,188)   DRY( 33,189)   
    DRY( 33,190)   DRY( 33,191)   DRY( 33,192)   DRY( 33,193)   DRY( 33,194)   
    DRY( 33,195)   DRY( 33,196)   DRY( 33,197)   DRY( 33,198)   DRY( 33,199)   
    DRY( 33,200)   DRY( 33,201)   DRY( 33,202)   DRY( 33,203)   DRY( 33,204)   
    DRY( 33,205)   DRY( 33,206)   DRY( 33,207)   DRY( 33,208)   DRY( 33,209)   
    DRY( 33,210)   DRY( 33,211)   DRY( 33,212)   DRY( 33,213)   DRY( 33,214)   
    DRY( 33,215)   DRY( 33,216)   DRY( 33,217)   DRY( 33,218)   DRY( 33,219)   
    DRY( 33,220)   DRY( 34,  5)   DRY( 34,  6)   DRY( 34,  7)   DRY( 34,  8)   
    DRY( 34,  9)   DRY( 34, 10)   DRY( 34, 11)   DRY( 34, 12)   DRY( 34, 13)   
    DRY( 34, 14)   DRY( 34, 15)   DRY( 34, 16)   DRY( 34, 17)   DRY( 34, 18)   
    DRY( 34, 19)   DRY( 34, 20)   DRY( 34, 21)   DRY( 34, 22)   DRY( 34, 23)   
    DRY( 34, 24)   DRY( 34, 25)   DRY( 34, 26)   DRY( 34, 27)   DRY( 34, 28)   
    DRY( 34, 29)   DRY( 34, 30)   DRY( 34, 31)   DRY( 34, 32)   DRY( 34, 33)   
    DRY( 34, 34)   DRY( 34, 35)   DRY( 34, 36)   DRY( 34, 37)   DRY( 34, 38)   
    DRY( 34, 39)   DRY( 34, 40)   DRY( 34, 41)   DRY( 34, 42)   DRY( 34, 43)   
    DRY( 34, 44)   DRY( 34, 45)   DRY( 34, 46)   DRY( 34, 47)   DRY( 34, 48)   
    DRY( 34, 49)   DRY( 34, 50)   DRY( 34, 51)   DRY( 34, 52)   DRY( 34, 53)   
    DRY( 34, 54)   DRY( 34, 55)   DRY( 34, 56)   DRY( 34, 57)   DRY( 34, 58)   
    DRY( 34, 59)   DRY( 34, 60)   DRY( 34, 61)   DRY( 34, 62)   DRY( 34, 63)   
    DRY( 34, 64)   DRY( 34, 65)   DRY( 34, 66)   DRY( 34, 67)   DRY( 34, 68)   
    DRY( 34, 69)   DRY( 34, 70)   DRY( 34, 71)   DRY( 34, 72)   DRY( 34, 73)   
    DRY( 34, 74)   DRY( 34, 75)   DRY( 34, 76)   DRY( 34, 77)   DRY( 34, 78)   
    DRY( 34, 79)   DRY( 34, 80)   DRY( 34, 81)   DRY( 34, 82)   DRY( 34, 83)   
    DRY( 34, 84)   DRY( 34, 85)   DRY( 34, 86)   DRY( 34, 87)   DRY( 34, 88)   
    DRY( 34, 89)   DRY( 34, 90)   DRY( 34, 91)   DRY( 34, 92)   DRY( 34, 93)   
    DRY( 34, 94)   DRY( 34, 95)   DRY( 34, 96)   DRY( 34, 97)   DRY( 34, 98)   
    DRY( 34, 99)   DRY( 34,100)   DRY( 34,101)   DRY( 34,102)   DRY( 34,103)   
    DRY( 34,104)   DRY( 34,105)   DRY( 34,106)   DRY( 34,107)   DRY( 34,108)   
    DRY( 34,109)   DRY( 34,110)   DRY( 34,111)   DRY( 34,112)   DRY( 34,113)   
    DRY( 34,114)   DRY( 34,115)   DRY( 34,116)   DRY( 34,117)   DRY( 34,118)   
    DRY( 34,119)   DRY( 34,120)   DRY( 34,121)   DRY( 34,122)   DRY( 34,123)   
    DRY( 34,124)   DRY( 34,125)   DRY( 34,126)   DRY( 34,127)   DRY( 34,128)   
    DRY( 34,129)   DRY( 34,130)   DRY( 34,131)   DRY( 34,132)   DRY( 34,133)   
    DRY( 34,134)   DRY( 34,135)   DRY( 34,136)   DRY( 34,137)   DRY( 34,138)   
    DRY( 34,139)   DRY( 34,140)   DRY( 34,141)   DRY( 34,142)   DRY( 34,143)   
    DRY( 34,144)   DRY( 34,145)   DRY( 34,146)   DRY( 34,147)   DRY( 34,148)   
    DRY( 34,149)   DRY( 34,150)   DRY( 34,151)   DRY( 34,152)   DRY( 34,153)   
    DRY( 34,154)   DRY( 34,155)   DRY( 34,156)   DRY( 34,157)   DRY( 34,158)   
    DRY( 34,159)   DRY( 34,160)   DRY( 34,161)   DRY( 34,162)   DRY( 34,163)   
    DRY( 34,164)   DRY( 34,165)   DRY( 34,166)   DRY( 34,167)   DRY( 34,168)   
    DRY( 34,169)   DRY( 34,170)   DRY( 34,171)   DRY( 34,172)   DRY( 34,173)   
    DRY( 34,174)   DRY( 34,175)   DRY( 34,176)   DRY( 34,177)   DRY( 34,178)   
    DRY( 34,179)   DRY( 34,180)   DRY( 34,181)   DRY( 34,182)   DRY( 34,183)   
    DRY( 34,184)   DRY( 34,185)   DRY( 34,186)   DRY( 34,187)   DRY( 34,188)   
    DRY( 34,189)   DRY( 34,190)   DRY( 34,191)   DRY( 34,192)   DRY( 34,193)   
    DRY( 34,194)   DRY( 34,195)   DRY( 34,196)   DRY( 34,197)   DRY( 34,198)   
    DRY( 34,199)   DRY( 34,200)   DRY( 34,201)   DRY( 34,202)   DRY( 34,203)   
    DRY( 34,204)   DRY( 34,205)   DRY( 34,206)   DRY( 34,207)   DRY( 34,208)   
    DRY( 34,209)   DRY( 34,210)   DRY( 34,211)   DRY( 34,212)   DRY( 34,213)   
    DRY( 34,214)   DRY( 34,215)   DRY( 34,216)   DRY( 34,217)   DRY( 34,218)   
    DRY( 34,219)   DRY( 34,220)   DRY( 35,  7)   DRY( 35,  8)   DRY( 35,  9)   
    DRY( 35, 10)   DRY( 35, 11)   DRY( 35, 12)   DRY( 35, 13)   DRY( 35, 14)   
    DRY( 35, 15)   DRY( 35, 16)   DRY( 35, 17)   DRY( 35, 18)   DRY( 35, 19)   
    DRY( 35, 20)   DRY( 35, 21)   DRY( 35, 22)   DRY( 35, 23)   DRY( 35, 24)   
    DRY( 35, 25)   DRY( 35, 26)   DRY( 35, 27)   DRY( 35, 28)   DRY( 35, 29)   
    DRY( 35, 30)   DRY( 35, 31)   DRY( 35, 32)   DRY( 35, 33)   DRY( 35, 34)   
    DRY( 35, 35)   DRY( 35, 36)   DRY( 35, 37)   DRY( 35, 38)   DRY( 35, 39)   
    DRY( 35, 40)   DRY( 35, 41)   DRY( 35, 42)   DRY( 35, 43)   DRY( 35, 44)   
    DRY( 35, 45)   DRY( 35, 46)   DRY( 35, 47)   DRY( 35, 48)   DRY( 35, 49)   
    DRY( 35, 50)   DRY( 35, 51)   DRY( 35, 52)   DRY( 35, 53)   DRY( 35, 54)   
    DRY( 35, 55)   DRY( 35, 56)   DRY( 35, 57)   DRY( 35, 58)   DRY( 35, 59)   
    DRY( 35, 60)   DRY( 35, 61)   DRY( 35, 62)   DRY( 35, 63)   DRY( 35, 64)   
    DRY( 35, 65)   DRY( 35, 66)   DRY( 35, 67)   DRY( 35, 68)   DRY( 35, 69)   
    DRY( 35, 70)   DRY( 35, 71)   DRY( 35, 72)   DRY( 35, 73)   DRY( 35, 74)   
    DRY( 35, 75)   DRY( 35, 76)   DRY( 35, 77)   DRY( 35, 78)   DRY( 35, 79)   
    DRY( 35, 80)   DRY( 35, 81)   DRY( 35, 82)   DRY( 35, 83)   DRY( 35, 84)   
    DRY( 35, 85)   DRY( 35, 86)   DRY( 35, 87)   DRY( 35, 88)   DRY( 35, 89)   
    DRY( 35, 90)   DRY( 35, 91)   DRY( 35, 92)   DRY( 35, 93)   DRY( 35, 94)   
    DRY( 35, 95)   DRY( 35, 96)   DRY( 35, 97)   DRY( 35, 98)   DRY( 35, 99)   
    DRY( 35,100)   DRY( 35,101)   DRY( 35,102)   DRY( 35,103)   DRY( 35,104)   
    DRY( 35,105)   DRY( 35,106)   DRY( 35,107)   DRY( 35,108)   DRY( 35,109)   
    DRY( 35,110)   DRY( 35,111)   DRY( 35,112)   DRY( 35,113)   DRY( 35,114)   
    DRY( 35,115)   DRY( 35,116)   DRY( 35,117)   DRY( 35,118)   DRY( 35,119)   
    DRY( 35,120)   DRY( 35,121)   DRY( 35,122)   DRY( 35,123)   DRY( 35,124)   
    DRY( 35,125)   DRY( 35,126)   DRY( 35,127)   DRY( 35,128)   DRY( 35,129)   
    DRY( 35,130)   DRY( 35,131)   DRY( 35,132)   DRY( 35,133)   DRY( 35,134)   
    DRY( 35,135)   DRY( 35,136)   DRY( 35,137)   DRY( 35,138)   DRY( 35,139)   
    DRY( 35,140)   DRY( 35,141)   DRY( 35,142)   DRY( 35,143)   DRY( 35,144)   
    DRY( 35,145)   DRY( 35,146)   DRY( 35,147)   DRY( 35,148)   DRY( 35,149)   
    DRY( 35,150)   DRY( 35,151)   DRY( 35,152)   DRY( 35,153)   DRY( 35,154)   
    DRY( 35,155)   DRY( 35,156)   DRY( 35,157)   DRY( 35,158)   DRY( 35,159)   
    DRY( 35,160)   DRY( 35,161)   DRY( 35,162)   DRY( 35,163)   DRY( 35,164)   
    DRY( 35,165)   DRY( 35,166)   DRY( 35,167)   DRY( 35,168)   DRY( 35,169)   
    DRY( 35,170)   DRY( 35,171)   DRY( 35,172)   DRY( 35,173)   DRY( 35,174)   
    DRY( 35,175)   DRY( 35,176)   DRY( 35,177)   DRY( 35,178)   DRY( 35,179)   
    DRY( 35,180)   DRY( 35,181)   DRY( 35,182)   DRY( 35,183)   DRY( 35,184)   
    DRY( 35,185)   DRY( 35,186)   DRY( 35,187)   DRY( 35,188)   DRY( 35,189)   
    DRY( 35,190)   DRY( 35,191)   DRY( 35,192)   DRY( 35,193)   DRY( 35,194)   
    DRY( 35,195)   DRY( 35,196)   DRY( 35,197)   DRY( 35,198)   DRY( 35,199)   
    DRY( 35,200)   DRY( 35,201)   DRY( 35,202)   DRY( 35,203)   DRY( 35,204)   
    DRY( 35,205)   DRY( 35,206)   DRY( 35,207)   DRY( 35,208)   DRY( 35,209)   
    DRY( 35,210)   DRY( 35,211)   DRY( 35,212)   DRY( 35,213)   DRY( 35,214)   
    DRY( 35,215)   DRY( 35,216)   DRY( 35,217)   DRY( 35,218)   DRY( 35,219)   
    DRY( 35,220)   DRY( 36, 11)   DRY( 36, 12)   DRY( 36, 13)   DRY( 36, 14)   
    DRY( 36, 15)   DRY( 36, 16)   DRY( 36, 17)   DRY( 36, 18)   DRY( 36, 19)   
    DRY( 36, 20)   DRY( 36, 21)   DRY( 36, 22)   DRY( 36, 23)   DRY( 36, 24)   
    DRY( 36, 25)   DRY( 36, 26)   DRY( 36, 27)   DRY( 36, 28)   DRY( 36, 29)   
    DRY( 36, 30)   DRY( 36, 31)   DRY( 36, 32)   DRY( 36, 33)   DRY( 36, 34)   
    DRY( 36, 35)   DRY( 36, 36)   DRY( 36, 37)   DRY( 36, 38)   DRY( 36, 39)   
    DRY( 36, 40)   DRY( 36, 41)   DRY( 36, 42)   DRY( 36, 43)   DRY( 36, 44)   
    DRY( 36, 45)   DRY( 36, 46)   DRY( 36, 47)   DRY( 36, 48)   DRY( 36, 49)   
    DRY( 36, 50)   DRY( 36, 51)   DRY( 36, 52)   DRY( 36, 53)   DRY( 36, 54)   
    DRY( 36, 55)   DRY( 36, 56)   DRY( 36, 57)   DRY( 36, 58)   DRY( 36, 59)   
    DRY( 36, 60)   DRY( 36, 61)   DRY( 36, 62)   DRY( 36, 63)   DRY( 36, 64)   
    DRY( 36, 65)   DRY( 36, 66)   DRY( 36, 67)   DRY( 36, 68)   DRY( 36, 69)   
    DRY( 36, 70)   DRY( 36, 71)   DRY( 36, 72)   DRY( 36, 73)   DRY( 36, 74)   
    DRY( 36, 75)   DRY( 36, 76)   DRY( 36, 77)   DRY( 36, 78)   DRY( 36, 79)   
    DRY( 36, 80)   DRY( 36, 81)   DRY( 36, 82)   DRY( 36, 83)   DRY( 36, 84)   
    DRY( 36, 85)   DRY( 36, 86)   DRY( 36, 87)   DRY( 36, 88)   DRY( 36, 89)   
    DRY( 36, 90)   DRY( 36, 91)   DRY( 36, 92)   DRY( 36, 93)   DRY( 36, 94)   
    DRY( 36, 95)   DRY( 36, 96)   DRY( 36, 97)   DRY( 36, 98)   DRY( 36, 99)   
    DRY( 36,100)   DRY( 36,101)   DRY( 36,102)   DRY( 36,103)   DRY( 36,104)   
    DRY( 36,105)   DRY( 36,106)   DRY( 36,107)   DRY( 36,108)   DRY( 36,109)   
    DRY( 36,110)   DRY( 36,111)   DRY( 36,112)   DRY( 36,113)   DRY( 36,114)   
    DRY( 36,115)   DRY( 36,116)   DRY( 36,117)   DRY( 36,118)   DRY( 36,119)   
    DRY( 36,120)   DRY( 36,121)   DRY( 36,122)   DRY( 36,123)   DRY( 36,124)   
    DRY( 36,125)   DRY( 36,126)   DRY( 36,127)   DRY( 36,128)   DRY( 36,129)   
    DRY( 36,130)   DRY( 36,131)   DRY( 36,132)   DRY( 36,133)   DRY( 36,134)   
    DRY( 36,135)   DRY( 36,136)   DRY( 36,137)   DRY( 36,138)   DRY( 36,139)   
    DRY( 36,140)   DRY( 36,141)   DRY( 36,142)   DRY( 36,143)   DRY( 36,144)   
    DRY( 36,145)   DRY( 36,146)   DRY( 36,147)   DRY( 36,148)   DRY( 36,149)   
    DRY( 36,150)   DRY( 36,151)   DRY( 36,152)   DRY( 36,153)   DRY( 36,154)   
    DRY( 36,155)   DRY( 36,156)   DRY( 36,157)   DRY( 36,158)   DRY( 36,159)   
    DRY( 36,160)   DRY( 36,161)   DRY( 36,162)   DRY( 36,163)   DRY( 36,164)   
    DRY( 36,165)   DRY( 36,166)   DRY( 36,167)   DRY( 36,168)   DRY( 36,169)   
    DRY( 36,170)   DRY( 36,171)   DRY( 36,172)   DRY( 36,173)   DRY( 36,174)   
    DRY( 36,175)   DRY( 36,176)   DRY( 36,177)   DRY( 36,178)   DRY( 36,179)   
    DRY( 36,180)   DRY( 36,181)   DRY( 36,182)   DRY( 36,183)   DRY( 36,184)   
    DRY( 36,185)   DRY( 36,186)   DRY( 36,187)   DRY( 36,188)   DRY( 36,189)   
    DRY( 36,190)   DRY( 36,191)   DRY( 36,192)   DRY( 36,193)   DRY( 36,194)   
    DRY( 36,195)   DRY( 36,196)   DRY( 36,197)   DRY( 36,198)   DRY( 36,199)   
    DRY( 36,200)   DRY( 36,201)   DRY( 36,202)   DRY( 36,203)   DRY( 36,204)   
    DRY( 36,205)   DRY( 36,206)   DRY( 36,207)   DRY( 36,208)   DRY( 36,209)   
    DRY( 36,210)   DRY( 36,211)   DRY( 36,212)   DRY( 36,213)   DRY( 36,214)   
    DRY( 36,215)   DRY( 36,216)   DRY( 36,217)   DRY( 36,218)   DRY( 36,219)   
    DRY( 36,220)   DRY( 37, 18)   DRY( 37, 19)   DRY( 37, 20)   DRY( 37, 21)   
    DRY( 37, 22)   DRY( 37, 23)   DRY( 37, 24)   DRY( 37, 25)   DRY( 37, 26)   
    DRY( 37, 27)   DRY( 37, 28)   DRY( 37, 29)   DRY( 37, 30)   DRY( 37, 31)   
    DRY( 37, 32)   DRY( 37, 33)   DRY( 37, 34)   DRY( 37, 35)   DRY( 37, 36)   
    DRY( 37, 37)   DRY( 37, 38)   DRY( 37, 39)   DRY( 37, 40)   DRY( 37, 41)   
    DRY( 37, 42)   DRY( 37, 43)   DRY( 37, 44)   DRY( 37, 45)   DRY( 37, 46)   
    DRY( 37, 47)   DRY( 37, 48)   DRY( 37, 49)   DRY( 37, 50)   DRY( 37, 51)   
    DRY( 37, 52)   DRY( 37, 53)   DRY( 37, 54)   DRY( 37, 55)   DRY( 37, 56)   
    DRY( 37, 57)   DRY( 37, 58)   DRY( 37, 59)   DRY( 37, 60)   DRY( 37, 61)   
    DRY( 37, 62)   DRY( 37, 63)   DRY( 37, 64)   DRY( 37, 65)   DRY( 37, 66)   
    DRY( 37, 67)   DRY( 37, 68)   DRY( 37, 69)   DRY( 37, 70)   DRY( 37, 71)   
    DRY( 37, 72)   DRY( 37, 73)   DRY( 37, 74)   DRY( 37, 75)   DRY( 37, 76)   
    DRY( 37, 77)   DRY( 37, 78)   DRY( 37, 79)   DRY( 37, 80)   DRY( 37, 81)   
    DRY( 37, 82)   DRY( 37, 83)   DRY( 37, 84)   DRY( 37, 85)   DRY( 37, 86)   
    DRY( 37, 87)   DRY( 37, 88)   DRY( 37, 89)   DRY( 37, 90)   DRY( 37, 91)   
    DRY( 37, 92)   DRY( 37, 93)   DRY( 37, 94)   DRY( 37, 95)   DRY( 37, 96)   
    DRY( 37, 97)   DRY( 37, 98)   DRY( 37, 99)   DRY( 37,100)   DRY( 37,101)   
    DRY( 37,102)   DRY( 37,103)   DRY( 37,104)   DRY( 37,105)   DRY( 37,106)   
    DRY( 37,107)   DRY( 37,108)   DRY( 37,109)   DRY( 37,110)   DRY( 37,111)   
    DRY( 37,112)   DRY( 37,113)   DRY( 37,114)   DRY( 37,115)   DRY( 37,116)   
    DRY( 37,117)   DRY( 37,118)   DRY( 37,119)   DRY( 37,120)   DRY( 37,121)   
    DRY( 37,122)   DRY( 37,123)   DRY( 37,124)   DRY( 37,125)   DRY( 37,126)   
    DRY( 37,127)   DRY( 37,128)   DRY( 37,129)   DRY( 37,130)   DRY( 37,131)   
    DRY( 37,132)   DRY( 37,133)   DRY( 37,134)   DRY( 37,135)   DRY( 37,136)   
    DRY( 37,137)   DRY( 37,138)   DRY( 37,139)   DRY( 37,140)   DRY( 37,141)   
    DRY( 37,142)   DRY( 37,143)   DRY( 37,144)   DRY( 37,145)   DRY( 37,146)   
    DRY( 37,147)   DRY( 37,148)   DRY( 37,149)   DRY( 37,150)   DRY( 37,151)   
    DRY( 37,152)   DRY( 37,153)   DRY( 37,154)   DRY( 37,155)   DRY( 37,156)   
    DRY( 37,157)   DRY( 37,158)   DRY( 37,159)   DRY( 37,160)   DRY( 37,161)   
    DRY( 37,162)   DRY( 37,163)   DRY( 37,164)   DRY( 37,165)   DRY( 37,166)   
    DRY( 37,167)   DRY( 37,168)   DRY( 37,169)   DRY( 37,170)   DRY( 37,171)   
    DRY( 37,172)   DRY( 37,173)   DRY( 37,174)   DRY( 37,175)   DRY( 37,176)   
    DRY( 37,177)   DRY( 37,178)   DRY( 37,179)   DRY( 37,180)   DRY( 37,181)   
    DRY( 37,182)   DRY( 37,183)   DRY( 37,184)   DRY( 37,185)   DRY( 37,186)   
    DRY( 37,187)   DRY( 37,188)   DRY( 37,189)   DRY( 37,190)   DRY( 37,191)   
    DRY( 37,192)   DRY( 37,193)   DRY( 37,194)   DRY( 37,195)   DRY( 37,196)   
    DRY( 37,197)   DRY( 37,198)   DRY( 37,199)   DRY( 37,200)   DRY( 37,201)   
    DRY( 37,202)   DRY( 37,203)   DRY( 37,204)   DRY( 37,205)   DRY( 37,206)   
    DRY( 37,207)   DRY( 37,208)   DRY( 37,209)   DRY( 37,210)   DRY( 37,211)   
    DRY( 37,212)   DRY( 37,213)   DRY( 37,214)   DRY( 37,215)   DRY( 37,216)   
    DRY( 37,217)   DRY( 37,218)   DRY( 37,219)   DRY( 37,220)   DRY( 38, 23)   
    DRY( 38, 24)   DRY( 38, 25)   DRY( 38, 26)   DRY( 38, 27)   DRY( 38, 28)   
    DRY( 38, 29)   DRY( 38, 30)   DRY( 38, 31)   DRY( 38, 32)   DRY( 38, 33)   
    DRY( 38, 34)   DRY( 38, 35)   DRY( 38, 36)   DRY( 38, 53)   DRY( 38, 54)   
    DRY( 38, 55)   DRY( 38, 56)   DRY( 38, 57)   DRY( 38, 58)   DRY( 38, 59)   
    DRY( 38, 60)   DRY( 38, 61)   DRY( 38, 62)   DRY( 38, 63)   DRY( 38, 64)   
    DRY( 38, 65)   DRY( 38, 66)   DRY( 38, 67)   DRY( 38, 68)   DRY( 38, 69)   
    DRY( 38, 70)   DRY( 38, 71)   DRY( 38, 72)   DRY( 38, 73)   DRY( 38, 74)   
    DRY( 38, 75)   DRY( 38, 76)   DRY( 38, 77)   DRY( 38, 78)   DRY( 38, 79)   
    DRY( 38, 80)   DRY( 38, 81)   DRY( 38, 82)   DRY( 38, 83)   DRY( 38, 84)   
    DRY( 38, 85)   DRY( 38, 86)   DRY( 38, 87)   DRY( 38, 88)   DRY( 38, 89)   
    DRY( 38, 90)   DRY( 38, 91)   DRY( 38, 92)   DRY( 38, 93)   DRY( 38, 94)   
    DRY( 38, 95)   DRY( 38, 96)   DRY( 38, 97)   DRY( 38, 98)   DRY( 38, 99)   
    DRY( 38,100)   DRY( 38,101)   DRY( 38,102)   DRY( 38,103)   DRY( 38,104)   
    DRY( 38,105)   DRY( 38,106)   DRY( 38,107)   DRY( 38,108)   DRY( 38,109)   
    DRY( 38,110)   DRY( 38,111)   DRY( 38,112)   DRY( 38,113)   DRY( 38,114)   
    DRY( 38,115)   DRY( 38,116)   DRY( 38,117)   DRY( 38,118)   DRY( 38,119)   
    DRY( 38,120)   DRY( 38,121)   DRY( 38,122)   DRY( 38,123)   DRY( 38,124)   
    DRY( 38,125)   DRY( 38,126)   DRY( 38,127)   DRY( 38,128)   DRY( 38,129)   
    DRY( 38,130)   DRY( 38,131)   DRY( 38,132)   DRY( 38,133)   DRY( 38,134)   
    DRY( 38,135)   DRY( 38,136)   DRY( 38,137)   DRY( 38,138)   DRY( 38,139)   
    DRY( 38,140)   DRY( 38,141)   DRY( 38,142)   DRY( 38,143)   DRY( 38,144)   
    DRY( 38,145)   DRY( 38,146)   DRY( 38,147)   DRY( 38,148)   DRY( 38,149)   
    DRY( 38,150)   DRY( 38,151)   DRY( 38,152)   DRY( 38,153)   DRY( 38,154)   
    DRY( 38,155)   DRY( 38,156)   DRY( 38,157)   DRY( 38,158)   DRY( 38,159)   
    DRY( 38,160)   DRY( 38,161)   DRY( 38,162)   DRY( 38,163)   DRY( 38,164)   
    DRY( 38,165)   DRY( 38,166)   DRY( 38,167)   DRY( 38,168)   DRY( 38,169)   
    DRY( 38,170)   DRY( 38,171)   DRY( 38,172)   DRY( 38,173)   DRY( 38,174)   
    DRY( 38,175)   DRY( 38,176)   DRY( 38,177)   DRY( 38,178)   DRY( 38,179)   
    DRY( 38,180)   DRY( 38,181)   DRY( 38,182)   DRY( 38,183)   DRY( 38,184)   
    DRY( 38,185)   DRY( 38,186)   DRY( 38,187)   DRY( 38,188)   DRY( 38,189)   
    DRY( 38,190)   DRY( 38,191)   DRY( 38,192)   DRY( 38,193)   DRY( 38,194)   
    DRY( 38,195)   DRY( 38,196)   DRY( 38,197)   DRY( 38,198)   DRY( 38,199)   
    DRY( 38,200)   DRY( 38,201)   DRY( 38,202)   DRY( 38,203)   DRY( 38,204)   
    DRY( 38,205)   DRY( 38,206)   DRY( 38,207)   DRY( 38,208)   DRY( 38,209)   
    DRY( 38,210)   DRY( 38,211)   DRY( 38,212)   DRY( 38,213)   DRY( 38,214)   
    DRY( 38,215)   DRY( 38,216)   DRY( 38,217)   DRY( 38,218)   DRY( 38,219)   
    DRY( 38,220)   DRY( 39, 60)   DRY( 39, 61)   DRY( 39, 62)   DRY( 39, 63)   
    DRY( 39, 64)   DRY( 39, 65)   DRY( 39, 66)   DRY( 39, 67)   DRY( 39, 68)   
    DRY( 39, 69)   DRY( 39, 70)   DRY( 39, 71)   DRY( 39, 72)   DRY( 39, 73)   
    DRY( 39, 74)   DRY( 39, 75)   DRY( 39, 76)   DRY( 39, 77)   DRY( 39, 78)   
    DRY( 39, 79)   DRY( 39, 80)   DRY( 39, 81)   DRY( 39, 82)   DRY( 39, 83)   
    DRY( 39, 84)   DRY( 39, 85)   DRY( 39, 86)   DRY( 39, 87)   DRY( 39, 88)   
    DRY( 39, 89)   DRY( 39, 90)   DRY( 39, 91)   DRY( 39, 92)   DRY( 39,100)   
    DRY( 39,101)   DRY( 39,102)   DRY( 39,103)   DRY( 39,104)   DRY( 39,105)   
    DRY( 39,106)   DRY( 39,107)   DRY( 39,108)   DRY( 39,109)   DRY( 39,110)   
    DRY( 39,111)   DRY( 39,112)   DRY( 39,113)   DRY( 39,114)   DRY( 39,115)   
    DRY( 39,116)   DRY( 39,117)   DRY( 39,118)   DRY( 39,119)   DRY( 39,120)   
    DRY( 39,121)   DRY( 39,122)   DRY( 39,123)   DRY( 39,124)   DRY( 39,125)   
    DRY( 39,126)   DRY( 39,127)   DRY( 39,128)   DRY( 39,129)   DRY( 39,130)   
    DRY( 39,131)   DRY( 39,132)   DRY( 39,133)   DRY( 39,134)   DRY( 39,135)   
    DRY( 39,136)   DRY( 39,137)   DRY( 39,138)   DRY( 39,139)   DRY( 39,140)   
    DRY( 39,141)   DRY( 39,142)   DRY( 39,143)   DRY( 39,144)   DRY( 39,145)   
    DRY( 39,146)   DRY( 39,147)   DRY( 39,148)   DRY( 39,149)   DRY( 39,150)   
    DRY( 39,151)   DRY( 39,152)   DRY( 39,153)   DRY( 39,154)   DRY( 39,155)   
    DRY( 39,156)   DRY( 39,157)   DRY( 39,158)   DRY( 39,159)   DRY( 39,160)   
    DRY( 39,161)   DRY( 39,162)   DRY( 39,163)   DRY( 39,164)   DRY( 39,165)   
    DRY( 39,166)   DRY( 39,167)   DRY( 39,168)   DRY( 39,169)   DRY( 39,170)   
    DRY( 39,171)   DRY( 39,172)   DRY( 39,173)   DRY( 39,174)   DRY( 39,175)   
    DRY( 39,176)   DRY( 39,177)   DRY( 39,178)   DRY( 39,179)   DRY( 39,180)   
    DRY( 39,181)   DRY( 39,182)   DRY( 39,183)   DRY( 39,184)   DRY( 39,185)   
    DRY( 39,186)   DRY( 39,187)   DRY( 39,188)   DRY( 39,189)   DRY( 39,190)   
    DRY( 39,191)   DRY( 39,192)   DRY( 39,193)   DRY( 39,194)   DRY( 39,195)   
    DRY( 39,196)   DRY( 39,197)   DRY( 39,198)   DRY( 39,199)   DRY( 39,200)   
    DRY( 39,201)   DRY( 39,202)   DRY( 39,203)   DRY( 39,204)   DRY( 39,205)   
    DRY( 39,206)   DRY( 39,207)   DRY( 39,208)   DRY( 39,209)   DRY( 39,210)   
    DRY( 39,211)   DRY( 39,212)   DRY( 39,213)   DRY( 39,214)   DRY( 39,215)   
    DRY( 39,216)   DRY( 39,217)   DRY( 39,218)   DRY( 39,219)   DRY( 39,220)   
    DRY( 40, 65)   DRY( 40, 66)   DRY( 40, 67)   DRY( 40, 68)   DRY( 40, 69)   
    DRY( 40, 70)   DRY( 40, 71)   DRY( 40, 72)   DRY( 40, 73)   DRY( 40, 74)   
    DRY( 40, 75)   DRY( 40, 76)   DRY( 40, 77)   DRY( 40, 78)   DRY( 40, 79)   
    DRY( 40, 80)   DRY( 40, 81)   DRY( 40, 82)   DRY( 40, 83)   DRY( 40, 84)   
    DRY( 40, 85)   DRY( 40, 86)   DRY( 40,122)   DRY( 40,123)   DRY( 40,124)   
    DRY( 40,125)   DRY( 40,126)   DRY( 40,127)   DRY( 40,128)   DRY( 40,129)   
    DRY( 40,130)   DRY( 40,131)   DRY( 40,132)   DRY( 40,133)   DRY( 40,134)   
    DRY( 40,135)   DRY( 40,136)   DRY( 40,137)   DRY( 40,138)   DRY( 40,139)   
    DRY( 40,140)   DRY( 40,141)   DRY( 40,142)   DRY( 40,143)   DRY( 40,144)   
    DRY( 40,145)   DRY( 40,146)   DRY( 40,147)   DRY( 40,148)   DRY( 40,149)   
    DRY( 40,150)   DRY( 40,151)   DRY( 40,152)   DRY( 40,153)   DRY( 40,154)   
    DRY( 40,155)   DRY( 40,156)   DRY( 40,157)   DRY( 40,158)   DRY( 40,159)   
    DRY( 40,160)   DRY( 40,161)   DRY( 40,162)   DRY( 40,163)   DRY( 40,164)   
    DRY( 40,165)   DRY( 40,166)   DRY( 40,167)   DRY( 40,168)   DRY( 40,169)   
    DRY( 40,170)   DRY( 40,171)   DRY( 40,172)   DRY( 40,173)   DRY( 40,174)   
    DRY( 40,175)   DRY( 40,176)   DRY( 40,177)   DRY( 40,178)   DRY( 40,179)   
    DRY( 40,180)   DRY( 40,181)   DRY( 40,182)   DRY( 40,183)   DRY( 40,184)   
    DRY( 40,185)   DRY( 40,186)   DRY( 40,187)   DRY( 40,188)   DRY( 40,189)   
    DRY( 40,190)   DRY( 40,191)   DRY( 40,192)   DRY( 40,193)   DRY( 40,194)   
    DRY( 40,195)   DRY( 40,196)   DRY( 40,197)   DRY( 40,198)   DRY( 40,199)   
    DRY( 40,200)   DRY( 40,201)   DRY( 40,202)   DRY( 40,203)   DRY( 40,204)   
    DRY( 40,205)   DRY( 40,206)   DRY( 40,207)   DRY( 40,208)   DRY( 40,209)   
    DRY( 40,210)   DRY( 40,211)   DRY( 40,212)   DRY( 40,213)   DRY( 40,214)   
    DRY( 40,215)   DRY( 40,216)   DRY( 40,217)   DRY( 40,218)   DRY( 40,219)   
    DRY( 40,220)   DRY( 41,149)   DRY( 41,150)   DRY( 41,175)   DRY( 41,176)   
    DRY( 41,177)   DRY( 41,178)   DRY( 41,190)   DRY( 41,191)   DRY( 41,192)   
    DRY( 41,193)   DRY( 41,194)   DRY( 41,195)   DRY( 41,196)   DRY( 41,197)   
    DRY( 41,198)   DRY( 41,199)   DRY( 41,200)   DRY( 41,201)   DRY( 41,202)   
    DRY( 41,203)   DRY( 41,204)   DRY( 41,205)   DRY( 41,206)   DRY( 41,207)   
    DRY( 41,208)   DRY( 41,209)   DRY( 41,210)   DRY( 41,215)   DRY( 41,216)   
    DRY( 41,217)   DRY( 41,218)   DRY( 41,219)   DRY( 41,220)   DRY( 42,217)   
    DRY( 42,218)   DRY( 42,219)   DRY( 42,220)   DRY( 43,219)   DRY( 43,220)   

 CELL CONVERSIONS FOR ITER.=  3  LAYER= 15  STEP=  1  PERIOD=   1   (ROW,COL)
    DRY( 30,  1)   DRY( 30,  2)   DRY( 30,  3)   DRY( 30,  4)   DRY( 30,  5)   
    DRY( 30,  6)   DRY( 30,  7)   DRY( 30,  8)   DRY( 30,  9)   DRY( 30, 10)   
    DRY( 30, 11)   DRY( 30, 12)   DRY( 30, 13)   DRY( 30, 14)   DRY( 30, 15)   
    DRY( 30, 16)   DRY( 30, 17)   DRY( 30, 18)   DRY( 30, 19)   DRY( 30, 20)   
    DRY( 30, 21)   DRY( 30, 22)   DRY( 30, 23)   DRY( 31,  1)   DRY( 31,  2)   
    DRY( 31,  3)   DRY( 31,  4)   DRY( 31,  5)   DRY( 31,  6)   DRY( 31,  7)   
    DRY( 31,  8)   DRY( 31,  9)   DRY( 31, 10)   DRY( 31, 11)   DRY( 31, 12)   
    DRY( 31, 13)   DRY( 31, 14)   DRY( 31, 15)   DRY( 31, 16)   DRY( 31, 17)   
    DRY( 31, 18)   DRY( 31, 19)   DRY( 31, 20)   DRY( 31, 21)   DRY( 31, 22)   
    DRY( 31, 23)   DRY( 31, 24)   DRY( 31, 25)   DRY( 31, 26)   DRY( 31, 27)   
    DRY( 31, 28)   DRY( 31, 29)   DRY( 31, 30)   DRY( 31, 31)   DRY( 31, 32)   
    DRY( 31, 33)   DRY( 31, 34)   DRY( 31, 35)   DRY( 31, 36)   DRY( 31, 37)   
    DRY( 31, 38)   DRY( 31, 39)   DRY( 31, 40)   DRY( 31, 41)   DRY( 31, 42)   
    DRY( 31, 43)   DRY( 31, 44)   DRY( 31, 45)   DRY( 31, 46)   DRY( 31, 47)   
    DRY( 31, 48)   DRY( 31, 49)   DRY( 31, 50)   DRY( 31, 51)   DRY( 31, 52)   
    DRY( 31, 53)   DRY( 31, 54)   DRY( 31, 55)   DRY( 31, 56)   DRY( 31, 57)   
    DRY( 31, 58)   DRY( 31, 59)   DRY( 31, 60)   DRY( 31, 61)   DRY( 31, 62)   
    DRY( 31, 63)   DRY( 31, 64)   DRY( 31, 65)   DRY( 31, 66)   DRY( 31, 67)   
    DRY( 31, 68)   DRY( 31, 69)   DRY( 31, 70)   DRY( 31, 71)   DRY( 31, 72)   
    DRY( 31, 73)   DRY( 31, 74)   DRY( 31, 75)   DRY( 31, 76)   DRY( 31, 77)   
    DRY( 31, 78)   DRY( 31, 79)   DRY( 31, 80)   DRY( 31, 81)   DRY( 31, 82)   
    DRY( 31, 83)   DRY( 31, 84)   DRY( 31, 85)   DRY( 31, 86)   DRY( 31, 87)   
    DRY( 31, 88)   DRY( 31, 89)   DRY( 31, 90)   DRY( 31, 91)   DRY( 31, 92)   
    DRY( 31, 93)   DRY( 31, 94)   DRY( 31, 95)   DRY( 31, 96)   DRY( 31, 97)   
    DRY( 31, 98)   DRY( 31, 99)   DRY( 31,100)   DRY( 31,101)   DRY( 31,102)   
    DRY( 31,103)   DRY( 31,104)   DRY( 31,105)   DRY( 31,106)   DRY( 31,107)   
    DRY( 31,108)   DRY( 31,109)   DRY( 31,110)   DRY( 31,111)   DRY( 31,112)   
    DRY( 31,113)   DRY( 31,114)   DRY( 31,115)   DRY( 31,116)   DRY( 31,117)   
    DRY( 31,118)   DRY( 31,119)   DRY( 31,120)   DRY( 31,121)   DRY( 31,122)   
    DRY( 31,123)   DRY( 31,124)   DRY( 31,125)   DRY( 31,126)   DRY( 31,127)   
    DRY( 31,128)   DRY( 31,129)   DRY( 31,130)   DRY( 31,131)   DRY( 31,132)   
    DRY( 31,133)   DRY( 31,134)   DRY( 31,135)   DRY( 31,136)   DRY( 31,137)   
    DRY( 31,138)   DRY( 31,139)   DRY( 31,140)   DRY( 31,141)   DRY( 31,142)   
    DRY( 31,143)   DRY( 31,144)   DRY( 31,145)   DRY( 31,146)   DRY( 31,147)   
    DRY( 31,148)   DRY( 31,149)   DRY( 31,150)   DRY( 31,151)   DRY( 31,152)   
    DRY( 31,153)   DRY( 31,154)   DRY( 31,155)   DRY( 31,156)   DRY( 31,157)   
    DRY( 31,158)   DRY( 31,159)   DRY( 31,160)   DRY( 31,161)   DRY( 31,162)   
    DRY( 31,163)   DRY( 31,164)   DRY( 31,165)   DRY( 31,166)   DRY( 31,167)   
    DRY( 31,168)   DRY( 31,169)   DRY( 31,170)   DRY( 31,171)   DRY( 31,172)   
    DRY( 31,173)   DRY( 31,174)   DRY( 31,175)   DRY( 31,176)   DRY( 31,177)   
    DRY( 31,178)   DRY( 31,179)   DRY( 31,180)   DRY( 31,181)   DRY( 31,182)   
    DRY( 31,183)   DRY( 31,184)   DRY( 31,185)   DRY( 31,186)   DRY( 31,187)   
    DRY( 31,188)   DRY( 31,189)   DRY( 31,190)   DRY( 31,191)   DRY( 32,  1)   
    DRY( 32,  2)   DRY( 32,  3)   DRY( 32,  4)   DRY( 32,  5)   DRY( 32,  6)   
    DRY( 32,  7)   DRY( 32,  8)   DRY( 32,  9)   DRY( 32, 10)   DRY( 32, 11)   
    DRY( 32, 12)   DRY( 32, 13)   DRY( 32, 14)   DRY( 32, 15)   DRY( 32, 16)   
    DRY( 32, 17)   DRY( 32, 18)   DRY( 32, 19)   DRY( 32, 20)   DRY( 32, 21)   
    DRY( 32, 22)   DRY( 32, 23)   DRY( 32, 24)   DRY( 32, 25)   DRY( 32, 26)   
    DRY( 32, 27)   DRY( 32, 28)   DRY( 32, 29)   DRY( 32, 30)   DRY( 32, 31)   
    DRY( 32, 32)   DRY( 32, 33)   DRY( 32, 34)   DRY( 32, 35)   DRY( 32, 36)   
    DRY( 32, 37)   DRY( 32, 38)   DRY( 32, 39)   DRY( 32, 40)   DRY( 32, 41)   
    DRY( 32, 42)   DRY( 32, 43)   DRY( 32, 44)   DRY( 32, 45)   DRY( 32, 46)   
    DRY( 32, 47)   DRY( 32, 48)   DRY( 32, 49)   DRY( 32, 50)   DRY( 32, 51)   
    DRY( 32, 52)   DRY( 32, 53)   DRY( 32, 54)   DRY( 32, 55)   DRY( 32, 56)   
    DRY( 32, 57)   DRY( 32, 58)   DRY( 32, 59)   DRY( 32, 60)   DRY( 32, 61)   
    DRY( 32, 62)   DRY( 32, 63)   DRY( 32, 64)   DRY( 32, 65)   DRY( 32, 66)   
    DRY( 32, 67)   DRY( 32, 68)   DRY( 32, 69)   DRY( 32, 70)   DRY( 32, 71)   
    DRY( 32, 72)   DRY( 32, 73)   DRY( 32, 74)   DRY( 32, 75)   DRY( 32, 76)   
    DRY( 32, 77)   DRY( 32, 78)   DRY( 32, 79)   DRY( 32, 80)   DRY( 32, 81)   
    DRY( 32, 82)   DRY( 32, 83)   DRY( 32, 84)   DRY( 32, 85)   DRY( 32, 86)   
    DRY( 32, 87)   DRY( 32, 88)   DRY( 32, 89)   DRY( 32, 90)   DRY( 32, 91)   
    DRY( 32, 92)   DRY( 32, 93)   DRY( 32, 94)   DRY( 32, 95)   DRY( 32, 96)   
    DRY( 32, 97)   DRY( 32, 98)   DRY( 32, 99)   DRY( 32,100)   DRY( 32,101)   
    DRY( 32,102)   DRY( 32,103)   DRY( 32,104)   DRY( 32,105)   DRY( 32,106)   
    DRY( 32,107)   DRY( 32,108)   DRY( 32,109)   DRY( 32,110)   DRY( 32,111)   
    DRY( 32,112)   DRY( 32,113)   DRY( 32,114)   DRY( 32,115)   DRY( 32,116)   
    DRY( 32,117)   DRY( 32,118)   DRY( 32,119)   DRY( 32,120)   DRY( 32,121)   
    DRY( 32,122)   DRY( 32,123)   DRY( 32,124)   DRY( 32,125)   DRY( 32,126)   
    DRY( 32,127)   DRY( 32,128)   DRY( 32,129)   DRY( 32,130)   DRY( 32,131)   
    DRY( 32,132)   DRY( 32,133)   DRY( 32,134)   DRY( 32,135)   DRY( 32,136)   
    DRY( 32,137)   DRY( 32,138)   DRY( 32,139)   DRY( 32,140)   DRY( 32,141)   
    DRY( 32,142)   DRY( 32,143)   DRY( 32,144)   DRY( 32,145)   DRY( 32,146)   
    DRY( 32,147)   DRY( 32,148)   DRY( 32,149)   DRY( 32,150)   DRY( 32,151)   
    DRY( 32,152)   DRY( 32,153)   DRY( 32,154)   DRY( 32,155)   DRY( 32,156)   
    DRY( 32,157)   DRY( 32,158)   DRY( 32,159)   DRY( 32,160)   DRY( 32,161)   
    DRY( 32,162)   DRY( 32,163)   DRY( 32,164)   DRY( 32,165)   DRY( 32,166)   
    DRY( 32,167)   DRY( 32,168)   DRY( 32,169)   DRY( 32,170)   DRY( 32,171)   
    DRY( 32,172)   DRY( 32,173)   DRY( 32,174)   DRY( 32,175)   DRY( 32,176)   
    DRY( 32,177)   DRY( 32,178)   DRY( 32,179)   DRY( 32,180)   DRY( 32,181)   
    DRY( 32,182)   DRY( 32,183)   DRY( 32,184)   DRY( 32,185)   DRY( 32,186)   
    DRY( 32,187)   DRY( 32,188)   DRY( 32,189)   DRY( 32,190)   DRY( 32,191)   
    DRY( 32,192)   DRY( 32,193)   DRY( 32,194)   DRY( 32,195)   DRY( 32,196)   
    DRY( 32,197)   DRY( 32,198)   DRY( 32,199)   DRY( 32,200)   DRY( 32,201)   
    DRY( 32,202)   DRY( 32,203)   DRY( 32,204)   DRY( 32,205)   DRY( 32,206)   
    DRY( 32,207)   DRY( 32,208)   DRY( 32,209)   DRY( 32,210)   DRY( 32,211)   
    DRY( 32,212)   DRY( 32,213)   DRY( 32,214)   DRY( 32,215)   DRY( 32,216)   
    DRY( 32,217)   DRY( 32,218)   DRY( 32,219)   DRY( 32,220)   DRY( 33,  1)   
    DRY( 33,  2)   DRY( 33,  3)   DRY( 33,  4)   DRY( 33,  5)   DRY( 33,  6)   
    DRY( 33,  7)   DRY( 33,  8)   DRY( 33,  9)   DRY( 33, 10)   DRY( 33, 11)   
    DRY( 33, 12)   DRY( 33, 13)   DRY( 33, 14)   DRY( 33, 15)   DRY( 33, 16)   
    DRY( 33, 17)   DRY( 33, 18)   DRY( 33, 19)   DRY( 33, 20)   DRY( 33, 21)   
    DRY( 33, 22)   DRY( 33, 23)   DRY( 33, 24)   DRY( 33, 25)   DRY( 33, 26)   
    DRY( 33, 27)   DRY( 33, 28)   DRY( 33, 29)   DRY( 33, 30)   DRY( 33, 31)   
    DRY( 33, 32)   DRY( 33, 33)   DRY( 33, 34)   DRY( 33, 35)   DRY( 33, 36)   
    DRY( 33, 37)   DRY( 33, 38)   DRY( 33, 39)   DRY( 33, 40)   DRY( 33, 41)   
    DRY( 33, 42)   DRY( 33, 43)   DRY( 33, 44)   DRY( 33, 45)   DRY( 33, 46)   
    DRY( 33, 47)   DRY( 33, 48)   DRY( 33, 49)   DRY( 33, 50)   DRY( 33, 51)   
    DRY( 33, 52)   DRY( 33, 53)   DRY( 33, 54)   DRY( 33, 55)   DRY( 33, 56)   
    DRY( 33, 57)   DRY( 33, 58)   DRY( 33, 59)   DRY( 33, 60)   DRY( 33, 61)   
    DRY( 33, 62)   DRY( 33, 63)   DRY( 33, 64)   DRY( 33, 65)   DRY( 33, 66)   
    DRY( 33, 67)   DRY( 33, 68)   DRY( 33, 69)   DRY( 33, 70)   DRY( 33, 71)   
    DRY( 33, 72)   DRY( 33, 73)   DRY( 33, 74)   DRY( 33, 75)   DRY( 33, 76)   
    DRY( 33, 77)   DRY( 33, 78)   DRY( 33, 79)   DRY( 33, 80)   DRY( 33, 81)   
    DRY( 33, 82)   DRY( 33, 83)   DRY( 33, 84)   DRY( 33, 85)   DRY( 33, 86)   
    DRY( 33, 87)   DRY( 33, 88)   DRY( 33, 89)   DRY( 33, 90)   DRY( 33, 91)   
    DRY( 33, 92)   DRY( 33, 93)   DRY( 33, 94)   DRY( 33, 95)   DRY( 33, 96)   
    DRY( 33, 97)   DRY( 33, 98)   DRY( 33, 99)   DRY( 33,100)   DRY( 33,101)   
    DRY( 33,102)   DRY( 33,103)   DRY( 33,104)   DRY( 33,105)   DRY( 33,106)   
    DRY( 33,107)   DRY( 33,108)   DRY( 33,109)   DRY( 33,110)   DRY( 33,111)   
    DRY( 33,112)   DRY( 33,113)   DRY( 33,114)   DRY( 33,115)   DRY( 33,116)   
    DRY( 33,117)   DRY( 33,118)   DRY( 33,119)   DRY( 33,120)   DRY( 33,121)   
    DRY( 33,122)   DRY( 33,123)   DRY( 33,124)   DRY( 33,125)   DRY( 33,126)   
    DRY( 33,127)   DRY( 33,128)   DRY( 33,129)   DRY( 33,130)   DRY( 33,131)   
    DRY( 33,132)   DRY( 33,133)   DRY( 33,134)   DRY( 33,135)   DRY( 33,136)   
    DRY( 33,137)   DRY( 33,138)   DRY( 33,139)   DRY( 33,140)   DRY( 33,141)   
    DRY( 33,142)   DRY( 33,143)   DRY( 33,144)   DRY( 33,145)   DRY( 33,146)   
    DRY( 33,147)   DRY( 33,148)   DRY( 33,149)   DRY( 33,150)   DRY( 33,151)   
    DRY( 33,152)   DRY( 33,153)   DRY( 33,154)   DRY( 33,155)   DRY( 33,156)   
    DRY( 33,157)   DRY( 33,158)   DRY( 33,159)   DRY( 33,160)   DRY( 33,161)   
    DRY( 33,162)   DRY( 33,163)   DRY( 33,164)   DRY( 33,165)   DRY( 33,166)   
    DRY( 33,167)   DRY( 33,168)   DRY( 33,169)   DRY( 33,170)   DRY( 33,171)   
    DRY( 33,172)   DRY( 33,173)   DRY( 33,174)   DRY( 33,175)   DRY( 33,176)   
    DRY( 33,177)   DRY( 33,178)   DRY( 33,179)   DRY( 33,180)   DRY( 33,181)   
    DRY( 33,182)   DRY( 33,183)   DRY( 33,184)   DRY( 33,185)   DRY( 33,186)   
    DRY( 33,187)   DRY( 33,188)   DRY( 33,189)   DRY( 33,190)   DRY( 33,191)   
    DRY( 33,192)   DRY( 33,193)   DRY( 33,194)   DRY( 33,195)   DRY( 33,196)   
    DRY( 33,197)   DRY( 33,198)   DRY( 33,199)   DRY( 33,200)   DRY( 33,201)   
    DRY( 33,202)   DRY( 33,203)   DRY( 33,204)   DRY( 33,205)   DRY( 33,206)   
    DRY( 33,207)   DRY( 33,208)   DRY( 33,209)   DRY( 33,210)   DRY( 33,211)   
    DRY( 33,212)   DRY( 33,213)   DRY( 33,214)   DRY( 33,215)   DRY( 33,216)   
    DRY( 33,217)   DRY( 33,218)   DRY( 33,219)   DRY( 33,220)   DRY( 34,  1)   
    DRY( 34,  2)   DRY( 34,  3)   DRY( 34,  4)   DRY( 34,  5)   DRY( 34,  6)   
    DRY( 34,  7)   DRY( 34,  8)   DRY( 34,  9)   DRY( 34, 10)   DRY( 34, 11)   
    DRY( 34, 12)   DRY( 34, 13)   DRY( 34, 14)   DRY( 34, 15)   DRY( 34, 16)   
    DRY( 34, 17)   DRY( 34, 18)   DRY( 34, 19)   DRY( 34, 20)   DRY( 34, 21)   
    DRY( 34, 22)   DRY( 34, 23)   DRY( 34, 24)   DRY( 34, 25)   DRY( 34, 26)   
    DRY( 34, 27)   DRY( 34, 28)   DRY( 34, 29)   DRY( 34, 30)   DRY( 34, 31)   
    DRY( 34, 32)   DRY( 34, 33)   DRY( 34, 34)   DRY( 34, 35)   DRY( 34, 36)   
    DRY( 34, 37)   DRY( 34, 38)   DRY( 34, 39)   DRY( 34, 40)   DRY( 34, 41)   
    DRY( 34, 42)   DRY( 34, 43)   DRY( 34, 44)   DRY( 34, 45)   DRY( 34, 46)   
    DRY( 34, 47)   DRY( 34, 48)   DRY( 34, 49)   DRY( 34, 50)   DRY( 34, 51)   
    DRY( 34, 52)   DRY( 34, 53)   DRY( 34, 54)   DRY( 34, 55)   DRY( 34, 56)   
    DRY( 34, 57)   DRY( 34, 58)   DRY( 34, 59)   DRY( 34, 60)   DRY( 34, 61)   
    DRY( 34, 62)   DRY( 34, 63)   DRY( 34, 64)   DRY( 34, 65)   DRY( 34, 66)   
    DRY( 34, 67)   DRY( 34, 68)   DRY( 34, 69)   DRY( 34, 70)   DRY( 34, 71)   
    DRY( 34, 72)   DRY( 34, 73)   DRY( 34, 74)   DRY( 34, 75)   DRY( 34, 76)   
    DRY( 34, 77)   DRY( 34, 78)   DRY( 34, 79)   DRY( 34, 80)   DRY( 34, 81)   
    DRY( 34, 82)   DRY( 34, 83)   DRY( 34, 84)   DRY( 34, 85)   DRY( 34, 86)   
    DRY( 34, 87)   DRY( 34, 88)   DRY( 34, 89)   DRY( 34, 90)   DRY( 34, 91)   
    DRY( 34, 92)   DRY( 34, 93)   DRY( 34, 94)   DRY( 34, 95)   DRY( 34, 96)   
    DRY( 34, 97)   DRY( 34, 98)   DRY( 34, 99)   DRY( 34,100)   DRY( 34,101)   
    DRY( 34,102)   DRY( 34,103)   DRY( 34,104)   DRY( 34,105)   DRY( 34,106)   
    DRY( 34,107)   DRY( 34,108)   DRY( 34,109)   DRY( 34,110)   DRY( 34,111)   
    DRY( 34,112)   DRY( 34,113)   DRY( 34,114)   DRY( 34,115)   DRY( 34,116)   
    DRY( 34,117)   DRY( 34,118)   DRY( 34,119)   DRY( 34,120)   DRY( 34,121)   
    DRY( 34,122)   DRY( 34,123)   DRY( 34,124)   DRY( 34,125)   DRY( 34,126)   
    DRY( 34,127)   DRY( 34,128)   DRY( 34,129)   DRY( 34,130)   DRY( 34,131)   
    DRY( 34,132)   DRY( 34,133)   DRY( 34,134)   DRY( 34,135)   DRY( 34,136)   
    DRY( 34,137)   DRY( 34,138)   DRY( 34,139)   DRY( 34,140)   DRY( 34,141)   
    DRY( 34,142)   DRY( 34,143)   DRY( 34,144)   DRY( 34,145)   DRY( 34,146)   
    DRY( 34,147)   DRY( 34,148)   DRY( 34,149)   DRY( 34,150)   DRY( 34,151)   
    DRY( 34,152)   DRY( 34,153)   DRY( 34,154)   DRY( 34,155)   DRY( 34,156)   
    DRY( 34,157)   DRY( 34,158)   DRY( 34,159)   DRY( 34,160)   DRY( 34,161)   
    DRY( 34,162)   DRY( 34,163)   DRY( 34,164)   DRY( 34,165)   DRY( 34,166)   
    DRY( 34,167)   DRY( 34,168)   DRY( 34,169)   DRY( 34,170)   DRY( 34,171)   
    DRY( 34,172)   DRY( 34,173)   DRY( 34,174)   DRY( 34,175)   DRY( 34,176)   
    DRY( 34,177)   DRY( 34,178)   DRY( 34,179)   DRY( 34,180)   DRY( 34,181)   
    DRY( 34,182)   DRY( 34,183)   DRY( 34,184)   DRY( 34,185)   DRY( 34,186)   
    DRY( 34,187)   DRY( 34,188)   DRY( 34,189)   DRY( 34,190)   DRY( 34,191)   
    DRY( 34,192)   DRY( 34,193)   DRY( 34,194)   DRY( 34,195)   DRY( 34,196)   
    DRY( 34,197)   DRY( 34,198)   DRY( 34,199)   DRY( 34,200)   DRY( 34,201)   
    DRY( 34,202)   DRY( 34,203)   DRY( 34,204)   DRY( 34,205)   DRY( 34,206)   
    DRY( 34,207)   DRY( 34,208)   DRY( 34,209)   DRY( 34,210)   DRY( 34,211)   
    DRY( 34,212)   DRY( 34,213)   DRY( 34,214)   DRY( 34,215)   DRY( 34,216)   
    DRY( 34,217)   DRY( 34,218)   DRY( 34,219)   DRY( 34,220)   DRY( 35,  1)   
    DRY( 35,  2)   DRY( 35,  3)   DRY( 35,  4)   DRY( 35,  5)   DRY( 35,  6)   
    DRY( 35,  7)   DRY( 35,  8)   DRY( 35,  9)   DRY( 35, 10)   DRY( 35, 11)   
    DRY( 35, 12)   DRY( 35, 13)   DRY( 35, 14)   DRY( 35, 15)   DRY( 35, 16)   
    DRY( 35, 17)   DRY( 35, 18)   DRY( 35, 19)   DRY( 35, 20)   DRY( 35, 21)   
    DRY( 35, 22)   DRY( 35, 23)   DRY( 35, 24)   DRY( 35, 25)   DRY( 35, 26)   
    DRY( 35, 27)   DRY( 35, 28)   DRY( 35, 29)   DRY( 35, 30)   DRY( 35, 31)   
    DRY( 35, 32)   DRY( 35, 33)   DRY( 35, 34)   DRY( 35, 35)   DRY( 35, 36)   
    DRY( 35, 37)   DRY( 35, 38)   DRY( 35, 39)   DRY( 35, 40)   DRY( 35, 41)   
    DRY( 35, 42)   DRY( 35, 43)   DRY( 35, 44)   DRY( 35, 45)   DRY( 35, 46)   
    DRY( 35, 47)   DRY( 35, 48)   DRY( 35, 49)   DRY( 35, 50)   DRY( 35, 51)   
    DRY( 35, 52)   DRY( 35, 53)   DRY( 35, 54)   DRY( 35, 55)   DRY( 35, 56)   
    DRY( 35, 57)   DRY( 35, 58)   DRY( 35, 59)   DRY( 35, 60)   DRY( 35, 61)   
    DRY( 35, 62)   DRY( 35, 63)   DRY( 35, 64)   DRY( 35, 65)   DRY( 35, 66)   
    DRY( 35, 67)   DRY( 35, 68)   DRY( 35, 69)   DRY( 35, 70)   DRY( 35, 71)   
    DRY( 35, 72)   DRY( 35, 73)   DRY( 35, 74)   DRY( 35, 75)   DRY( 35, 76)   
    DRY( 35, 77)   DRY( 35, 78)   DRY( 35, 79)   DRY( 35, 80)   DRY( 35, 81)   
    DRY( 35, 82)   DRY( 35, 83)   DRY( 35, 84)   DRY( 35, 85)   DRY( 35, 86)   
    DRY( 35, 87)   DRY( 35, 88)   DRY( 35, 89)   DRY( 35, 90)   DRY( 35, 91)   
    DRY( 35, 92)   DRY( 35, 93)   DRY( 35, 94)   DRY( 35, 95)   DRY( 35, 96)   
    DRY( 35, 97)   DRY( 35, 98)   DRY( 35, 99)   DRY( 35,100)   DRY( 35,101)   
    DRY( 35,102)   DRY( 35,103)   DRY( 35,104)   DRY( 35,105)   DRY( 35,106)   
    DRY( 35,107)   DRY( 35,108)   DRY( 35,109)   DRY( 35,110)   DRY( 35,111)   
    DRY( 35,112)   DRY( 35,113)   DRY( 35,114)   DRY( 35,115)   DRY( 35,116)   
    DRY( 35,117)   DRY( 35,118)   DRY( 35,119)   DRY( 35,120)   DRY( 35,121)   
    DRY( 35,122)   DRY( 35,123)   DRY( 35,124)   DRY( 35,125)   DRY( 35,126)   
    DRY( 35,127)   DRY( 35,128)   DRY( 35,129)   DRY( 35,130)   DRY( 35,131)   
    DRY( 35,132)   DRY( 35,133)   DRY( 35,134)   DRY( 35,135)   DRY( 35,136)   
    DRY( 35,137)   DRY( 35,138)   DRY( 35,139)   DRY( 35,140)   DRY( 35,141)   
    DRY( 35,142)   DRY( 35,143)   DRY( 35,144)   DRY( 35,145)   DRY( 35,146)   
    DRY( 35,147)   DRY( 35,148)   DRY( 35,149)   DRY( 35,150)   DRY( 35,151)   
    DRY( 35,152)   DRY( 35,153)   DRY( 35,154)   DRY( 35,155)   DRY( 35,156)   
    DRY( 35,157)   DRY( 35,158)   DRY( 35,159)   DRY( 35,160)   DRY( 35,161)   
    DRY( 35,162)   DRY( 35,163)   DRY( 35,164)   DRY( 35,165)   DRY( 35,166)   
    DRY( 35,167)   DRY( 35,168)   DRY( 35,169)   DRY( 35,170)   DRY( 35,171)   
    DRY( 35,172)   DRY( 35,173)   DRY( 35,174)   DRY( 35,175)   DRY( 35,176)   
    DRY( 35,177)   DRY( 35,178)   DRY( 35,179)   DRY( 35,180)   DRY( 35,181)   
    DRY( 35,182)   DRY( 35,183)   DRY( 35,184)   DRY( 35,185)   DRY( 35,186)   
    DRY( 35,187)   DRY( 35,188)   DRY( 35,189)   DRY( 35,190)   DRY( 35,191)   
    DRY( 35,192)   DRY( 35,193)   DRY( 35,194)   DRY( 35,195)   DRY( 35,196)   
    DRY( 35,197)   DRY( 35,198)   DRY( 35,199)   DRY( 35,200)   DRY( 35,201)   
    DRY( 35,202)   DRY( 35,203)   DRY( 35,204)   DRY( 35,205)   DRY( 35,206)   
    DRY( 35,207)   DRY( 35,208)   DRY( 35,209)   DRY( 35,210)   DRY( 35,211)   
    DRY( 35,212)   DRY( 35,213)   DRY( 35,214)   DRY( 35,215)   DRY( 35,216)   
    DRY( 35,217)   DRY( 35,218)   DRY( 35,219)   DRY( 35,220)   DRY( 36,  1)   
    DRY( 36,  2)   DRY( 36,  3)   DRY( 36,  4)   DRY( 36,  5)   DRY( 36,  6)   
    DRY( 36,  7)   DRY( 36,  8)   DRY( 36,  9)   DRY( 36, 10)   DRY( 36, 11)   
    DRY( 36, 12)   DRY( 36, 13)   DRY( 36, 14)   DRY( 36, 15)   DRY( 36, 16)   
    DRY( 36, 17)   DRY( 36, 18)   DRY( 36, 19)   DRY( 36, 20)   DRY( 36, 21)   
    DRY( 36, 22)   DRY( 36, 23)   DRY( 36, 24)   DRY( 36, 25)   DRY( 36, 26)   
    DRY( 36, 27)   DRY( 36, 28)   DRY( 36, 29)   DRY( 36, 30)   DRY( 36, 31)   
    DRY( 36, 32)   DRY( 36, 33)   DRY( 36, 34)   DRY( 36, 35)   DRY( 36, 36)   
    DRY( 36, 37)   DRY( 36, 38)   DRY( 36, 39)   DRY( 36, 40)   DRY( 36, 41)   
    DRY( 36, 42)   DRY( 36, 43)   DRY( 36, 44)   DRY( 36, 45)   DRY( 36, 46)   
    DRY( 36, 47)   DRY( 36, 48)   DRY( 36, 49)   DRY( 36, 50)   DRY( 36, 51)   
    DRY( 36, 52)   DRY( 36, 53)   DRY( 36, 54)   DRY( 36, 55)   DRY( 36, 56)   
    DRY( 36, 57)   DRY( 36, 58)   DRY( 36, 59)   DRY( 36, 60)   DRY( 36, 61)   
    DRY( 36, 62)   DRY( 36, 63)   DRY( 36, 64)   DRY( 36, 65)   DRY( 36, 66)   
    DRY( 36, 67)   DRY( 36, 68)   DRY( 36, 69)   DRY( 36, 70)   DRY( 36, 71)   
    DRY( 36, 72)   DRY( 36, 73)   DRY( 36, 74)   DRY( 36, 75)   DRY( 36, 76)   
    DRY( 36, 77)   DRY( 36, 78)   DRY( 36, 79)   DRY( 36, 80)   DRY( 36, 81)   
    DRY( 36, 82)   DRY( 36, 83)   DRY( 36, 84)   DRY( 36, 85)   DRY( 36, 86)   
    DRY( 36, 87)   DRY( 36, 88)   DRY( 36, 89)   DRY( 36, 90)   DRY( 36, 91)   
    DRY( 36, 92)   DRY( 36, 93)   DRY( 36, 94)   DRY( 36, 95)   DRY( 36, 96)   
    DRY( 36, 97)   DRY( 36, 98)   DRY( 36, 99)   DRY( 36,100)   DRY( 36,101)   
    DRY( 36,102)   DRY( 36,103)   DRY( 36,104)   DRY( 36,105)   DRY( 36,106)   
    DRY( 36,107)   DRY( 36,108)   DRY( 36,109)   DRY( 36,110)   DRY( 36,111)   
    DRY( 36,112)   DRY( 36,113)   DRY( 36,114)   DRY( 36,115)   DRY( 36,116)   
    DRY( 36,117)   DRY( 36,118)   DRY( 36,119)   DRY( 36,120)   DRY( 36,121)   
    DRY( 36,122)   DRY( 36,123)   DRY( 36,124)   DRY( 36,125)   DRY( 36,126)   
    DRY( 36,127)   DRY( 36,128)   DRY( 36,129)   DRY( 36,130)   DRY( 36,131)   
    DRY( 36,132)   DRY( 36,133)   DRY( 36,134)   DRY( 36,135)   DRY( 36,136)   
    DRY( 36,137)   DRY( 36,138)   DRY( 36,139)   DRY( 36,140)   DRY( 36,141)   
    DRY( 36,142)   DRY( 36,143)   DRY( 36,144)   DRY( 36,145)   DRY( 36,146)   
    DRY( 36,147)   DRY( 36,148)   DRY( 36,149)   DRY( 36,150)   DRY( 36,151)   
    DRY( 36,152)   DRY( 36,153)   DRY( 36,154)   DRY( 36,155)   DRY( 36,156)   
    DRY( 36,157)   DRY( 36,158)   DRY( 36,159)   DRY( 36,160)   DRY( 36,161)   
    DRY( 36,162)   DRY( 36,163)   DRY( 36,164)   DRY( 36,165)   DRY( 36,166)   
    DRY( 36,167)   DRY( 36,168)   DRY( 36,169)   DRY( 36,170)   DRY( 36,171)   
    DRY( 36,172)   DRY( 36,173)   DRY( 36,174)   DRY( 36,175)   DRY( 36,176)   
    DRY( 36,177)   DRY( 36,178)   DRY( 36,179)   DRY( 36,180)   DRY( 36,181)   
    DRY( 36,182)   DRY( 36,183)   DRY( 36,184)   DRY( 36,185)   DRY( 36,186)   
    DRY( 36,187)   DRY( 36,188)   DRY( 36,189)   DRY( 36,190)   DRY( 36,191)   
    DRY( 36,192)   DRY( 36,193)   DRY( 36,194)   DRY( 36,195)   DRY( 36,196)   
    DRY( 36,197)   DRY( 36,198)   DRY( 36,199)   DRY( 36,200)   DRY( 36,201)   
    DRY( 36,202)   DRY( 36,203)   DRY( 36,204)   DRY( 36,205)   DRY( 36,206)   
    DRY( 36,207)   DRY( 36,208)   DRY( 36,209)   DRY( 36,210)   DRY( 36,211)   
    DRY( 36,212)   DRY( 36,213)   DRY( 36,214)   DRY( 36,215)   DRY( 36,216)   
    DRY( 36,217)   DRY( 36,218)   DRY( 36,219)   DRY( 36,220)   DRY( 37,  3)   
    DRY( 37,  4)   DRY( 37,  5)   DRY( 37,  6)   DRY( 37,  7)   DRY( 37,  8)   
    DRY( 37,  9)   DRY( 37, 10)   DRY( 37, 11)   DRY( 37, 12)   DRY( 37, 13)   
    DRY( 37, 14)   DRY( 37, 15)   DRY( 37, 16)   DRY( 37, 17)   DRY( 37, 18)   
    DRY( 37, 19)   DRY( 37, 20)   DRY( 37, 21)   DRY( 37, 22)   DRY( 37, 23)   
    DRY( 37, 24)   DRY( 37, 25)   DRY( 37, 26)   DRY( 37, 27)   DRY( 37, 28)   
    DRY( 37, 29)   DRY( 37, 30)   DRY( 37, 31)   DRY( 37, 32)   DRY( 37, 33)   
    DRY( 37, 34)   DRY( 37, 35)   DRY( 37, 36)   DRY( 37, 37)   DRY( 37, 38)   
    DRY( 37, 39)   DRY( 37, 40)   DRY( 37, 41)   DRY( 37, 42)   DRY( 37, 43)   
    DRY( 37, 44)   DRY( 37, 45)   DRY( 37, 46)   DRY( 37, 47)   DRY( 37, 48)   
    DRY( 37, 49)   DRY( 37, 50)   DRY( 37, 51)   DRY( 37, 52)   DRY( 37, 53)   
    DRY( 37, 54)   DRY( 37, 55)   DRY( 37, 56)   DRY( 37, 57)   DRY( 37, 58)   
    DRY( 37, 59)   DRY( 37, 60)   DRY( 37, 61)   DRY( 37, 62)   DRY( 37, 63)   
    DRY( 37, 64)   DRY( 37, 65)   DRY( 37, 66)   DRY( 37, 67)   DRY( 37, 68)   
    DRY( 37, 69)   DRY( 37, 70)   DRY( 37, 71)   DRY( 37, 72)   DRY( 37, 73)   
    DRY( 37, 74)   DRY( 37, 75)   DRY( 37, 76)   DRY( 37, 77)   DRY( 37, 78)   
    DRY( 37, 79)   DRY( 37, 80)   DRY( 37, 81)   DRY( 37, 82)   DRY( 37, 83)   
    DRY( 37, 84)   DRY( 37, 85)   DRY( 37, 86)   DRY( 37, 87)   DRY( 37, 88)   
    DRY( 37, 89)   DRY( 37, 90)   DRY( 37, 91)   DRY( 37, 92)   DRY( 37, 93)   
    DRY( 37, 94)   DRY( 37, 95)   DRY( 37, 96)   DRY( 37, 97)   DRY( 37, 98)   
    DRY( 37, 99)   DRY( 37,100)   DRY( 37,101)   DRY( 37,102)   DRY( 37,103)   
    DRY( 37,104)   DRY( 37,105)   DRY( 37,106)   DRY( 37,107)   DRY( 37,108)   
    DRY( 37,109)   DRY( 37,110)   DRY( 37,111)   DRY( 37,112)   DRY( 37,113)   
    DRY( 37,114)   DRY( 37,115)   DRY( 37,116)   DRY( 37,117)   DRY( 37,118)   
    DRY( 37,119)   DRY( 37,120)   DRY( 37,121)   DRY( 37,122)   DRY( 37,123)   
    DRY( 37,124)   DRY( 37,125)   DRY( 37,126)   DRY( 37,127)   DRY( 37,128)   
    DRY( 37,129)   DRY( 37,130)   DRY( 37,131)   DRY( 37,132)   DRY( 37,133)   
    DRY( 37,134)   DRY( 37,135)   DRY( 37,136)   DRY( 37,137)   DRY( 37,138)   
    DRY( 37,139)   DRY( 37,140)   DRY( 37,141)   DRY( 37,142)   DRY( 37,143)   
    DRY( 37,144)   DRY( 37,145)   DRY( 37,146)   DRY( 37,147)   DRY( 37,148)   
    DRY( 37,149)   DRY( 37,150)   DRY( 37,151)   DRY( 37,152)   DRY( 37,153)   
    DRY( 37,154)   DRY( 37,155)   DRY( 37,156)   DRY( 37,157)   DRY( 37,158)   
    DRY( 37,159)   DRY( 37,160)   DRY( 37,161)   DRY( 37,162)   DRY( 37,163)   
    DRY( 37,164)   DRY( 37,165)   DRY( 37,166)   DRY( 37,167)   DRY( 37,168)   
    DRY( 37,169)   DRY( 37,170)   DRY( 37,171)   DRY( 37,172)   DRY( 37,173)   
    DRY( 37,174)   DRY( 37,175)   DRY( 37,176)   DRY( 37,177)   DRY( 37,178)   
    DRY( 37,179)   DRY( 37,180)   DRY( 37,181)   DRY( 37,182)   DRY( 37,183)   
    DRY( 37,184)   DRY( 37,185)   DRY( 37,186)   DRY( 37,187)   DRY( 37,188)   
    DRY( 37,189)   DRY( 37,190)   DRY( 37,191)   DRY( 37,192)   DRY( 37,193)   
    DRY( 37,194)   DRY( 37,195)   DRY( 37,196)   DRY( 37,197)   DRY( 37,198)   
    DRY( 37,199)   DRY( 37,200)   DRY( 37,201)   DRY( 37,202)   DRY( 37,203)   
    DRY( 37,204)   DRY( 37,205)   DRY( 37,206)   DRY( 37,207)   DRY( 37,208)   
    DRY( 37,209)   DRY( 37,210)   DRY( 37,211)   DRY( 37,212)   DRY( 37,213)   
    DRY( 37,214)   DRY( 37,215)   DRY( 37,216)   DRY( 37,217)   DRY( 37,218)   
    DRY( 37,219)   DRY( 37,220)   DRY( 38,  6)   DRY( 38,  7)   DRY( 38,  8)   
    DRY( 38,  9)   DRY( 38, 10)   DRY( 38, 11)   DRY( 38, 12)   DRY( 38, 13)   
    DRY( 38, 14)   DRY( 38, 15)   DRY( 38, 16)   DRY( 38, 17)   DRY( 38, 18)   
    DRY( 38, 19)   DRY( 38, 20)   DRY( 38, 21)   DRY( 38, 22)   DRY( 38, 23)   
    DRY( 38, 24)   DRY( 38, 25)   DRY( 38, 26)   DRY( 38, 27)   DRY( 38, 28)   
    DRY( 38, 29)   DRY( 38, 30)   DRY( 38, 31)   DRY( 38, 32)   DRY( 38, 33)   
    DRY( 38, 34)   DRY( 38, 35)   DRY( 38, 36)   DRY( 38, 37)   DRY( 38, 38)   
    DRY( 38, 39)   DRY( 38, 40)   DRY( 38, 41)   DRY( 38, 42)   DRY( 38, 43)   
    DRY( 38, 44)   DRY( 38, 45)   DRY( 38, 46)   DRY( 38, 47)   DRY( 38, 48)   
    DRY( 38, 49)   DRY( 38, 50)   DRY( 38, 51)   DRY( 38, 52)   DRY( 38, 53)   
    DRY( 38, 54)   DRY( 38, 55)   DRY( 38, 56)   DRY( 38, 57)   DRY( 38, 58)   
    DRY( 38, 59)   DRY( 38, 60)   DRY( 38, 61)   DRY( 38, 62)   DRY( 38, 63)   
    DRY( 38, 64)   DRY( 38, 65)   DRY( 38, 66)   DRY( 38, 67)   DRY( 38, 68)   
    DRY( 38, 69)   DRY( 38, 70)   DRY( 38, 71)   DRY( 38, 72)   DRY( 38, 73)   
    DRY( 38, 74)   DRY( 38, 75)   DRY( 38, 76)   DRY( 38, 77)   DRY( 38, 78)   
    DRY( 38, 79)   DRY( 38, 80)   DRY( 38, 81)   DRY( 38, 82)   DRY( 38, 83)   
    DRY( 38, 84)   DRY( 38, 85)   DRY( 38, 86)   DRY( 38, 87)   DRY( 38, 88)   
    DRY( 38, 89)   DRY( 38, 90)   DRY( 38, 91)   DRY( 38, 92)   DRY( 38, 93)   
    DRY( 38, 94)   DRY( 38, 95)   DRY( 38, 96)   DRY( 38, 97)   DRY( 38, 98)   
    DRY( 38, 99)   DRY( 38,100)   DRY( 38,101)   DRY( 38,102)   DRY( 38,103)   
    DRY( 38,104)   DRY( 38,105)   DRY( 38,106)   DRY( 38,107)   DRY( 38,108)   
    DRY( 38,109)   DRY( 38,110)   DRY( 38,111)   DRY( 38,112)   DRY( 38,113)   
    DRY( 38,114)   DRY( 38,115)   DRY( 38,116)   DRY( 38,117)   DRY( 38,118)   
    DRY( 38,119)   DRY( 38,120)   DRY( 38,121)   DRY( 38,122)   DRY( 38,123)   
    DRY( 38,124)   DRY( 38,125)   DRY( 38,126)   DRY( 38,127)   DRY( 38,128)   
    DRY( 38,129)   DRY( 38,130)   DRY( 38,131)   DRY( 38,132)   DRY( 38,133)   
    DRY( 38,134)   DRY( 38,135)   DRY( 38,136)   DRY( 38,137)   DRY( 38,138)   
    DRY( 38,139)   DRY( 38,140)   DRY( 38,141)   DRY( 38,142)   DRY( 38,143)   
    DRY( 38,144)   DRY( 38,145)   DRY( 38,146)   DRY( 38,147)   DRY( 38,148)   
    DRY( 38,149)   DRY( 38,150)   DRY( 38,151)   DRY( 38,152)   DRY( 38,153)   
    DRY( 38,154)   DRY( 38,155)   DRY( 38,156)   DRY( 38,157)   DRY( 38,158)   
    DRY( 38,159)   DRY( 38,160)   DRY( 38,161)   DRY( 38,162)   DRY( 38,163)   
    DRY( 38,164)   DRY( 38,165)   DRY( 38,166)   DRY( 38,167)   DRY( 38,168)   
    DRY( 38,169)   DRY( 38,170)   DRY( 38,171)   DRY( 38,172)   DRY( 38,173)   
    DRY( 38,174)   DRY( 38,175)   DRY( 38,176)   DRY( 38,177)   DRY( 38,178)   
    DRY( 38,179)   DRY( 38,180)   DRY( 38,181)   DRY( 38,182)   DRY( 38,183)   
    DRY( 38,184)   DRY( 38,185)   DRY( 38,186)   DRY( 38,187)   DRY( 38,188)   
    DRY( 38,189)   DRY( 38,190)   DRY( 38,191)   DRY( 38,192)   DRY( 38,193)   
    DRY( 38,194)   DRY( 38,195)   DRY( 38,196)   DRY( 38,197)   DRY( 38,198)   
    DRY( 38,199)   DRY( 38,200)   DRY( 38,201)   DRY( 38,202)   DRY( 38,203)   
    DRY( 38,204)   DRY( 38,205)   DRY( 38,206)   DRY( 38,207)   DRY( 38,208)   
    DRY( 38,209)   DRY( 38,210)   DRY( 38,211)   DRY( 38,212)   DRY( 38,213)   
    DRY( 38,214)   DRY( 38,215)   DRY( 38,216)   DRY( 38,217)   DRY( 38,218)   
    DRY( 38,219)   DRY( 38,220)   DRY( 39,  8)   DRY( 39,  9)   DRY( 39, 10)   
    DRY( 39, 11)   DRY( 39, 12)   DRY( 39, 13)   DRY( 39, 14)   DRY( 39, 15)   
    DRY( 39, 16)   DRY( 39, 17)   DRY( 39, 18)   DRY( 39, 19)   DRY( 39, 20)   
    DRY( 39, 21)   DRY( 39, 22)   DRY( 39, 23)   DRY( 39, 24)   DRY( 39, 25)   
    DRY( 39, 26)   DRY( 39, 27)   DRY( 39, 28)   DRY( 39, 29)   DRY( 39, 30)   
    DRY( 39, 31)   DRY( 39, 32)   DRY( 39, 33)   DRY( 39, 34)   DRY( 39, 35)   
    DRY( 39, 36)   DRY( 39, 37)   DRY( 39, 38)   DRY( 39, 39)   DRY( 39, 40)   
    DRY( 39, 41)   DRY( 39, 42)   DRY( 39, 43)   DRY( 39, 44)   DRY( 39, 45)   
    DRY( 39, 46)   DRY( 39, 47)   DRY( 39, 48)   DRY( 39, 49)   DRY( 39, 50)   
    DRY( 39, 51)   DRY( 39, 52)   DRY( 39, 53)   DRY( 39, 54)   DRY( 39, 55)   
    DRY( 39, 56)   DRY( 39, 57)   DRY( 39, 58)   DRY( 39, 59)   DRY( 39, 60)   
    DRY( 39, 61)   DRY( 39, 62)   DRY( 39, 63)   DRY( 39, 64)   DRY( 39, 65)   
    DRY( 39, 66)   DRY( 39, 67)   DRY( 39, 68)   DRY( 39, 69)   DRY( 39, 70)   
    DRY( 39, 71)   DRY( 39, 72)   DRY( 39, 73)   DRY( 39, 74)   DRY( 39, 75)   
    DRY( 39, 76)   DRY( 39, 77)   DRY( 39, 78)   DRY( 39, 79)   DRY( 39, 80)   
    DRY( 39, 81)   DRY( 39, 82)   DRY( 39, 83)   DRY( 39, 84)   DRY( 39, 85)   
    DRY( 39, 86)   DRY( 39, 87)   DRY( 39, 88)   DRY( 39, 89)   DRY( 39, 90)   
    DRY( 39, 91)   DRY( 39, 92)   DRY( 39, 93)   DRY( 39, 94)   DRY( 39, 95)   
    DRY( 39, 96)   DRY( 39, 97)   DRY( 39, 98)   DRY( 39, 99)   DRY( 39,100)   
    DRY( 39,101)   DRY( 39,102)   DRY( 39,103)   DRY( 39,104)   DRY( 39,105)   
    DRY( 39,106)   DRY( 39,107)   DRY( 39,108)   DRY( 39,109)   DRY( 39,110)   
    DRY( 39,111)   DRY( 39,112)   DRY( 39,113)   DRY( 39,114)   DRY( 39,115)   
    DRY( 39,116)   DRY( 39,117)   DRY( 39,118)   DRY( 39,119)   DRY( 39,120)   
    DRY( 39,121)   DRY( 39,122)   DRY( 39,123)   DRY( 39,124)   DRY( 39,125)   
    DRY( 39,126)   DRY( 39,127)   DRY( 39,128)   DRY( 39,129)   DRY( 39,130)   
    DRY( 39,131)   DRY( 39,132)   DRY( 39,133)   DRY( 39,134)   DRY( 39,135)   
    DRY( 39,136)   DRY( 39,137)   DRY( 39,138)   DRY( 39,139)   DRY( 39,140)   
    DRY( 39,141)   DRY( 39,142)   DRY( 39,143)   DRY( 39,144)   DRY( 39,145)   
    DRY( 39,146)   DRY( 39,147)   DRY( 39,148)   DRY( 39,149)   DRY( 39,150)   
    DRY( 39,151)   DRY( 39,152)   DRY( 39,153)   DRY( 39,154)   DRY( 39,155)   
    DRY( 39,156)   DRY( 39,157)   DRY( 39,158)   DRY( 39,159)   DRY( 39,160)   
    DRY( 39,161)   DRY( 39,162)   DRY( 39,163)   DRY( 39,164)   DRY( 39,165)   
    DRY( 39,166)   DRY( 39,167)   DRY( 39,168)   DRY( 39,169)   DRY( 39,170)   
    DRY( 39,171)   DRY( 39,172)   DRY( 39,173)   DRY( 39,174)   DRY( 39,175)   
    DRY( 39,176)   DRY( 39,177)   DRY( 39,178)   DRY( 39,179)   DRY( 39,180)   
    DRY( 39,181)   DRY( 39,182)   DRY( 39,183)   DRY( 39,184)   DRY( 39,185)   
    DRY( 39,186)   DRY( 39,187)   DRY( 39,188)   DRY( 39,189)   DRY( 39,190)   
    DRY( 39,191)   DRY( 39,192)   DRY( 39,193)   DRY( 39,194)   DRY( 39,195)   
    DRY( 39,196)   DRY( 39,197)   DRY( 39,198)   DRY( 39,199)   DRY( 39,200)   
    DRY( 39,201)   DRY( 39,202)   DRY( 39,203)   DRY( 39,204)   DRY( 39,205)   
    DRY( 39,206)   DRY( 39,207)   DRY( 39,208)   DRY( 39,209)   DRY( 39,210)   
    DRY( 39,211)   DRY( 39,212)   DRY( 39,213)   DRY( 39,214)   DRY( 39,215)   
    DRY( 39,216)   DRY( 39,217)   DRY( 39,218)   DRY( 39,219)   DRY( 39,220)   
    DRY( 40, 11)   DRY( 40, 12)   DRY( 40, 13)   DRY( 40, 14)   DRY( 40, 15)   
    DRY( 40, 16)   DRY( 40, 17)   DRY( 40, 18)   DRY( 40, 19)   DRY( 40, 20)   
    DRY( 40, 21)   DRY( 40, 22)   DRY( 40, 23)   DRY( 40, 24)   DRY( 40, 25)   
    DRY( 40, 26)   DRY( 40, 27)   DRY( 40, 28)   DRY( 40, 29)   DRY( 40, 30)   
    DRY( 40, 31)   DRY( 40, 32)   DRY( 40, 33)   DRY( 40, 34)   DRY( 40, 35)   
    DRY( 40, 36)   DRY( 40, 37)   DRY( 40, 38)   DRY( 40, 39)   DRY( 40, 40)   
    DRY( 40, 41)   DRY( 40, 42)   DRY( 40, 43)   DRY( 40, 44)   DRY( 40, 45)   
    DRY( 40, 46)   DRY( 40, 47)   DRY( 40, 48)   DRY( 40, 49)   DRY( 40, 50)   
    DRY( 40, 51)   DRY( 40, 52)   DRY( 40, 53)   DRY( 40, 54)   DRY( 40, 55)   
    DRY( 40, 56)   DRY( 40, 57)   DRY( 40, 58)   DRY( 40, 59)   DRY( 40, 60)   
    DRY( 40, 61)   DRY( 40, 62)   DRY( 40, 63)   DRY( 40, 64)   DRY( 40, 65)   
    DRY( 40, 66)   DRY( 40, 67)   DRY( 40, 68)   DRY( 40, 69)   DRY( 40, 70)   
    DRY( 40, 71)   DRY( 40, 72)   DRY( 40, 73)   DRY( 40, 74)   DRY( 40, 75)   
    DRY( 40, 76)   DRY( 40, 77)   DRY( 40, 78)   DRY( 40, 79)   DRY( 40, 80)   
    DRY( 40, 81)   DRY( 40, 82)   DRY( 40, 83)   DRY( 40, 84)   DRY( 40, 85)   
    DRY( 40, 86)   DRY( 40, 87)   DRY( 40, 88)   DRY( 40, 89)   DRY( 40, 90)   
    DRY( 40, 91)   DRY( 40, 92)   DRY( 40, 93)   DRY( 40, 94)   DRY( 40, 95)   
    DRY( 40, 96)   DRY( 40, 97)   DRY( 40, 98)   DRY( 40, 99)   DRY( 40,100)   
    DRY( 40,101)   DRY( 40,102)   DRY( 40,103)   DRY( 40,104)   DRY( 40,105)   
    DRY( 40,106)   DRY( 40,107)   DRY( 40,108)   DRY( 40,109)   DRY( 40,110)   
    DRY( 40,111)   DRY( 40,112)   DRY( 40,113)   DRY( 40,114)   DRY( 40,115)   
    DRY( 40,116)   DRY( 40,117)   DRY( 40,118)   DRY( 40,119)   DRY( 40,120)   
    DRY( 40,121)   DRY( 40,122)   DRY( 40,123)   DRY( 40,124)   DRY( 40,125)   
    DRY( 40,126)   DRY( 40,127)   DRY( 40,128)   DRY( 40,129)   DRY( 40,130)   
    DRY( 40,131)   DRY( 40,132)   DRY( 40,133)   DRY( 40,134)   DRY( 40,135)   
    DRY( 40,136)   DRY( 40,137)   DRY( 40,138)   DRY( 40,139)   DRY( 40,140)   
    DRY( 40,141)   DRY( 40,142)   DRY( 40,143)   DRY( 40,144)   DRY( 40,145)   
    DRY( 40,146)   DRY( 40,147)   DRY( 40,148)   DRY( 40,149)   DRY( 40,150)   
    DRY( 40,151)   DRY( 40,152)   DRY( 40,153)   DRY( 40,154)   DRY( 40,155)   
    DRY( 40,156)   DRY( 40,157)   DRY( 40,158)   DRY( 40,159)   DRY( 40,160)   
    DRY( 40,161)   DRY( 40,162)   DRY( 40,163)   DRY( 40,164)   DRY( 40,165)   
    DRY( 40,166)   DRY( 40,167)   DRY( 40,168)   DRY( 40,169)   DRY( 40,170)   
    DRY( 40,171)   DRY( 40,172)   DRY( 40,173)   DRY( 40,174)   DRY( 40,175)   
    DRY( 40,176)   DRY( 40,177)   DRY( 40,178)   DRY( 40,179)   DRY( 40,180)   
    DRY( 40,181)   DRY( 40,182)   DRY( 40,183)   DRY( 40,184)   DRY( 40,185)   
    DRY( 40,186)   DRY( 40,187)   DRY( 40,188)   DRY( 40,189)   DRY( 40,190)   
    DRY( 40,191)   DRY( 40,192)   DRY( 40,193)   DRY( 40,194)   DRY( 40,195)   
    DRY( 40,196)   DRY( 40,197)   DRY( 40,198)   DRY( 40,199)   DRY( 40,200)   
    DRY( 40,201)   DRY( 40,202)   DRY( 40,203)   DRY( 40,204)   DRY( 40,205)   
    DRY( 40,206)   DRY( 40,207)   DRY( 40,208)   DRY( 40,209)   DRY( 40,210)   
    DRY( 40,211)   DRY( 40,212)   DRY( 40,213)   DRY( 40,214)   DRY( 40,215)   
    DRY( 40,216)   DRY( 40,217)   DRY( 40,218)   DRY( 40,219)   DRY( 40,220)   
    DRY( 41, 17)   DRY( 41, 18)   DRY( 41, 19)   DRY( 41, 20)   DRY( 41, 21)   
    DRY( 41, 22)   DRY( 41, 23)   DRY( 41, 24)   DRY( 41, 25)   DRY( 41, 26)   
    DRY( 41, 27)   DRY( 41, 28)   DRY( 41, 29)   DRY( 41, 30)   DRY( 41, 31)   
    DRY( 41, 32)   DRY( 41, 33)   DRY( 41, 34)   DRY( 41, 35)   DRY( 41, 36)   
    DRY( 41, 37)   DRY( 41, 38)   DRY( 41, 39)   DRY( 41, 40)   DRY( 41, 41)   
    DRY( 41, 42)   DRY( 41, 43)   DRY( 41, 44)   DRY( 41, 45)   DRY( 41, 46)   
    DRY( 41, 47)   DRY( 41, 48)   DRY( 41, 49)   DRY( 41, 50)   DRY( 41, 51)   
    DRY( 41, 52)   DRY( 41, 53)   DRY( 41, 54)   DRY( 41, 55)   DRY( 41, 56)   
    DRY( 41, 57)   DRY( 41, 58)   DRY( 41, 59)   DRY( 41, 60)   DRY( 41, 61)   
    DRY( 41, 62)   DRY( 41, 63)   DRY( 41, 64)   DRY( 41, 65)   DRY( 41, 66)   
    DRY( 41, 67)   DRY( 41, 68)   DRY( 41, 69)   DRY( 41, 70)   DRY( 41, 71)   
    DRY( 41, 72)   DRY( 41, 73)   DRY( 41, 74)   DRY( 41, 75)   DRY( 41, 76)   
    DRY( 41, 77)   DRY( 41, 78)   DRY( 41, 79)   DRY( 41, 80)   DRY( 41, 81)   
    DRY( 41, 82)   DRY( 41, 83)   DRY( 41, 84)   DRY( 41, 85)   DRY( 41, 86)   
    DRY( 41, 87)   DRY( 41, 88)   DRY( 41, 89)   DRY( 41, 90)   DRY( 41, 91)   
    DRY( 41, 92)   DRY( 41, 93)   DRY( 41, 94)   DRY( 41, 95)   DRY( 41, 96)   
    DRY( 41, 97)   DRY( 41, 98)   DRY( 41, 99)   DRY( 41,100)   DRY( 41,101)   
    DRY( 41,102)   DRY( 41,103)   DRY( 41,104)   DRY( 41,105)   DRY( 41,106)   
    DRY( 41,107)   DRY( 41,108)   DRY( 41,109)   DRY( 41,110)   DRY( 41,111)   
    DRY( 41,112)   DRY( 41,113)   DRY( 41,114)   DRY( 41,115)   DRY( 41,116)   
    DRY( 41,117)   DRY( 41,118)   DRY( 41,119)   DRY( 41,120)   DRY( 41,121)   
    DRY( 41,122)   DRY( 41,123)   DRY( 41,124)   DRY( 41,125)   DRY( 41,126)   
    DRY( 41,127)   DRY( 41,128)   DRY( 41,129)   DRY( 41,130)   DRY( 41,131)   
    DRY( 41,132)   DRY( 41,133)   DRY( 41,134)   DRY( 41,135)   DRY( 41,136)   
    DRY( 41,137)   DRY( 41,138)   DRY( 41,139)   DRY( 41,140)   DRY( 41,141)   
    DRY( 41,142)   DRY( 41,143)   DRY( 41,144)   DRY( 41,145)   DRY( 41,146)   
    DRY( 41,147)   DRY( 41,148)   DRY( 41,149)   DRY( 41,150)   DRY( 41,151)   
    DRY( 41,152)   DRY( 41,153)   DRY( 41,154)   DRY( 41,155)   DRY( 41,156)   
    DRY( 41,157)   DRY( 41,158)   DRY( 41,159)   DRY( 41,160)   DRY( 41,161)   
    DRY( 41,162)   DRY( 41,163)   DRY( 41,164)   DRY( 41,165)   DRY( 41,166)   
    DRY( 41,167)   DRY( 41,168)   DRY( 41,169)   DRY( 41,170)   DRY( 41,171)   
    DRY( 41,172)   DRY( 41,173)   DRY( 41,174)   DRY( 41,175)   DRY( 41,176)   
    DRY( 41,177)   DRY( 41,178)   DRY( 41,179)   DRY( 41,180)   DRY( 41,181)   
    DRY( 41,182)   DRY( 41,183)   DRY( 41,184)   DRY( 41,185)   DRY( 41,186)   
    DRY( 41,187)   DRY( 41,188)   DRY( 41,189)   DRY( 41,190)   DRY( 41,191)   
    DRY( 41,192)   DRY( 41,193)   DRY( 41,194)   DRY( 41,195)   DRY( 41,196)   
    DRY( 41,197)   DRY( 41,198)   DRY( 41,199)   DRY( 41,200)   DRY( 41,201)   
    DRY( 41,202)   DRY( 41,203)   DRY( 41,204)   DRY( 41,205)   DRY( 41,206)   
    DRY( 41,207)   DRY( 41,208)   DRY( 41,209)   DRY( 41,210)   DRY( 41,211)   
    DRY( 41,212)   DRY( 41,213)   DRY( 41,214)   DRY( 41,215)   DRY( 41,216)   
    DRY( 41,217)   DRY( 41,218)   DRY( 41,219)   DRY( 41,220)   DRY( 42, 24)   
    DRY( 42, 25)   DRY( 42, 26)   DRY( 42, 27)   DRY( 42, 28)   DRY( 42, 29)   
    DRY( 42, 30)   DRY( 42, 31)   DRY( 42, 32)   DRY( 42, 33)   DRY( 42, 34)   
    DRY( 42, 35)   DRY( 42, 36)   DRY( 42, 37)   DRY( 42, 38)   DRY( 42, 39)   
    DRY( 42, 40)   DRY( 42, 41)   DRY( 42, 42)   DRY( 42, 43)   DRY( 42, 44)   
    DRY( 42, 45)   DRY( 42, 46)   DRY( 42, 47)   DRY( 42, 48)   DRY( 42, 49)   
    DRY( 42, 50)   DRY( 42, 51)   DRY( 42, 52)   DRY( 42, 53)   DRY( 42, 54)   
    DRY( 42, 55)   DRY( 42, 56)   DRY( 42, 57)   DRY( 42, 58)   DRY( 42, 59)   
    DRY( 42, 60)   DRY( 42, 61)   DRY( 42, 62)   DRY( 42, 63)   DRY( 42, 64)   
    DRY( 42, 65)   DRY( 42, 66)   DRY( 42, 67)   DRY( 42, 68)   DRY( 42, 69)   
    DRY( 42, 70)   DRY( 42, 71)   DRY( 42, 72)   DRY( 42, 73)   DRY( 42, 74)   
    DRY( 42, 75)   DRY( 42, 76)   DRY( 42, 77)   DRY( 42, 78)   DRY( 42, 79)   
    DRY( 42, 80)   DRY( 42, 81)   DRY( 42, 82)   DRY( 42, 83)   DRY( 42, 84)   
    DRY( 42, 85)   DRY( 42, 86)   DRY( 42, 87)   DRY( 42, 88)   DRY( 42, 89)   
    DRY( 42, 90)   DRY( 42, 91)   DRY( 42, 92)   DRY( 42, 93)   DRY( 42, 94)   
    DRY( 42, 95)   DRY( 42, 96)   DRY( 42, 97)   DRY( 42, 98)   DRY( 42, 99)   
    DRY( 42,100)   DRY( 42,101)   DRY( 42,102)   DRY( 42,103)   DRY( 42,104)   
    DRY( 42,105)   DRY( 42,106)   DRY( 42,107)   DRY( 42,108)   DRY( 42,109)   
    DRY( 42,110)   DRY( 42,111)   DRY( 42,112)   DRY( 42,113)   DRY( 42,114)   
    DRY( 42,115)   DRY( 42,116)   DRY( 42,117)   DRY( 42,118)   DRY( 42,119)   
    DRY( 42,120)   DRY( 42,121)   DRY( 42,122)   DRY( 42,123)   DRY( 42,124)   
    DRY( 42,125)   DRY( 42,126)   DRY( 42,127)   DRY( 42,128)   DRY( 42,129)   
    DRY( 42,130)   DRY( 42,131)   DRY( 42,132)   DRY( 42,133)   DRY( 42,134)   
    DRY( 42,135)   DRY( 42,136)   DRY( 42,137)   DRY( 42,138)   DRY( 42,139)   
    DRY( 42,140)   DRY( 42,141)   DRY( 42,142)   DRY( 42,143)   DRY( 42,144)   
    DRY( 42,145)   DRY( 42,146)   DRY( 42,147)   DRY( 42,148)   DRY( 42,149)   
    DRY( 42,150)   DRY( 42,151)   DRY( 42,152)   DRY( 42,153)   DRY( 42,154)   
    DRY( 42,155)   DRY( 42,156)   DRY( 42,157)   DRY( 42,158)   DRY( 42,159)   
    DRY( 42,160)   DRY( 42,161)   DRY( 42,162)   DRY( 42,163)   DRY( 42,164)   
    DRY( 42,165)   DRY( 42,166)   DRY( 42,167)   DRY( 42,168)   DRY( 42,169)   
    DRY( 42,170)   DRY( 42,171)   DRY( 42,172)   DRY( 42,173)   DRY( 42,174)   
    DRY( 42,175)   DRY( 42,176)   DRY( 42,177)   DRY( 42,178)   DRY( 42,179)   
    DRY( 42,180)   DRY( 42,181)   DRY( 42,182)   DRY( 42,183)   DRY( 42,184)   
    DRY( 42,185)   DRY( 42,186)   DRY( 42,187)   DRY( 42,188)   DRY( 42,189)   
    DRY( 42,190)   DRY( 42,191)   DRY( 42,192)   DRY( 42,193)   DRY( 42,194)   
    DRY( 42,195)   DRY( 42,196)   DRY( 42,197)   DRY( 42,198)   DRY( 42,199)   
    DRY( 42,200)   DRY( 42,201)   DRY( 42,202)   DRY( 42,203)   DRY( 42,204)   
    DRY( 42,205)   DRY( 42,206)   DRY( 42,207)   DRY( 42,208)   DRY( 42,209)   
    DRY( 42,210)   DRY( 42,211)   DRY( 42,212)   DRY( 42,213)   DRY( 42,214)   
    DRY( 42,215)   DRY( 42,216)   DRY( 42,217)   DRY( 42,218)   DRY( 42,219)   
    DRY( 42,220)   DRY( 43, 29)   DRY( 43, 30)   DRY( 43, 31)   DRY( 43, 32)   
    DRY( 43, 33)   DRY( 43, 34)   DRY( 43, 35)   DRY( 43, 36)   DRY( 43, 37)   
    DRY( 43, 63)   DRY( 43, 64)   DRY( 43, 65)   DRY( 43, 66)   DRY( 43, 67)   
    DRY( 43, 68)   DRY( 43, 69)   DRY( 43, 70)   DRY( 43, 71)   DRY( 43, 72)   
    DRY( 43, 73)   DRY( 43, 74)   DRY( 43, 75)   DRY( 43, 76)   DRY( 43, 77)   
    DRY( 43, 78)   DRY( 43, 79)   DRY( 43, 80)   DRY( 43, 81)   DRY( 43, 82)   
    DRY( 43, 83)   DRY( 43, 84)   DRY( 43, 85)   DRY( 43, 86)   DRY( 43, 87)   
    DRY( 43, 88)   DRY( 43, 89)   DRY( 43, 90)   DRY( 43, 91)   DRY( 43, 92)   
    DRY( 43, 93)   DRY( 43, 94)   DRY( 43, 95)   DRY( 43, 96)   DRY( 43, 97)   
    DRY( 43, 98)   DRY( 43, 99)   DRY( 43,100)   DRY( 43,101)   DRY( 43,102)   
    DRY( 43,103)   DRY( 43,104)   DRY( 43,105)   DRY( 43,106)   DRY( 43,107)   
    DRY( 43,108)   DRY( 43,109)   DRY( 43,110)   DRY( 43,111)   DRY( 43,112)   
    DRY( 43,113)   DRY( 43,114)   DRY( 43,115)   DRY( 43,116)   DRY( 43,117)   
    DRY( 43,118)   DRY( 43,119)   DRY( 43,120)   DRY( 43,121)   DRY( 43,122)   
    DRY( 43,123)   DRY( 43,124)   DRY( 43,125)   DRY( 43,126)   DRY( 43,127)   
    DRY( 43,128)   DRY( 43,129)   DRY( 43,130)   DRY( 43,131)   DRY( 43,132)   
    DRY( 43,133)   DRY( 43,134)   DRY( 43,135)   DRY( 43,136)   DRY( 43,137)   
    DRY( 43,138)   DRY( 43,139)   DRY( 43,140)   DRY( 43,141)   DRY( 43,142)   
    DRY( 43,143)   DRY( 43,144)   DRY( 43,145)   DRY( 43,146)   DRY( 43,147)   
    DRY( 43,148)   DRY( 43,149)   DRY( 43,150)   DRY( 43,151)   DRY( 43,152)   
    DRY( 43,153)   DRY( 43,154)   DRY( 43,155)   DRY( 43,156)   DRY( 43,157)   
    DRY( 43,158)   DRY( 43,159)   DRY( 43,160)   DRY( 43,161)   DRY( 43,162)   
    DRY( 43,163)   DRY( 43,164)   DRY( 43,165)   DRY( 43,166)   DRY( 43,167)   
    DRY( 43,168)   DRY( 43,169)   DRY( 43,170)   DRY( 43,171)   DRY( 43,172)   
    DRY( 43,173)   DRY( 43,174)   DRY( 43,175)   DRY( 43,176)   DRY( 43,177)   
    DRY( 43,178)   DRY( 43,179)   DRY( 43,180)   DRY( 43,181)   DRY( 43,182)   
    DRY( 43,183)   DRY( 43,184)   DRY( 43,185)   DRY( 43,186)   DRY( 43,187)   
    DRY( 43,188)   DRY( 43,189)   DRY( 43,190)   DRY( 43,191)   DRY( 43,192)   
    DRY( 43,193)   DRY( 43,194)   DRY( 43,195)   DRY( 43,196)   DRY( 43,197)   
    DRY( 43,198)   DRY( 43,199)   DRY( 43,200)   DRY( 43,201)   DRY( 43,202)   
    DRY( 43,203)   DRY( 43,204)   DRY( 43,205)   DRY( 43,206)   DRY( 43,207)   
    DRY( 43,208)   DRY( 43,209)   DRY( 43,210)   DRY( 43,211)   DRY( 43,212)   
    DRY( 43,213)   DRY( 43,214)   DRY( 43,215)   DRY( 43,216)   DRY( 43,217)   
    DRY( 43,218)   DRY( 43,219)   DRY( 43,220)   DRY( 44, 69)   DRY( 44, 70)   
    DRY( 44, 71)   DRY( 44, 72)   DRY( 44, 73)   DRY( 44, 74)   DRY( 44, 75)   
    DRY( 44, 76)   DRY( 44, 77)   DRY( 44, 78)   DRY( 44, 79)   DRY( 44, 80)   
    DRY( 44, 81)   DRY( 44, 82)   DRY( 44, 83)   DRY( 44, 84)   DRY( 44, 85)   
    DRY( 44, 86)   DRY( 44, 87)   DRY( 44, 88)   DRY( 44, 89)   DRY( 44, 90)   
    DRY( 44, 91)   DRY( 44, 92)   DRY( 44, 93)   DRY( 44, 94)   DRY( 44, 95)   
    DRY( 44,123)   DRY( 44,124)   DRY( 44,125)   DRY( 44,126)   DRY( 44,127)   
    DRY( 44,128)   DRY( 44,129)   DRY( 44,130)   DRY( 44,131)   DRY( 44,132)   
    DRY( 44,133)   DRY( 44,134)   DRY( 44,135)   DRY( 44,136)   DRY( 44,137)   
    DRY( 44,138)   DRY( 44,139)   DRY( 44,140)   DRY( 44,141)   DRY( 44,142)   
    DRY( 44,143)   DRY( 44,144)   DRY( 44,145)   DRY( 44,146)   DRY( 44,147)   
    DRY( 44,148)   DRY( 44,149)   DRY( 44,150)   DRY( 44,151)   DRY( 44,152)   
    DRY( 44,153)   DRY( 44,154)   DRY( 44,155)   DRY( 44,156)   DRY( 44,157)   
    DRY( 44,158)   DRY( 44,159)   DRY( 44,160)   DRY( 44,161)   DRY( 44,162)   
    DRY( 44,163)   DRY( 44,164)   DRY( 44,165)   DRY( 44,166)   DRY( 44,167)   
    DRY( 44,168)   DRY( 44,169)   DRY( 44,170)   DRY( 44,171)   DRY( 44,172)   
    DRY( 44,173)   DRY( 44,174)   DRY( 44,175)   DRY( 44,176)   DRY( 44,177)   
    DRY( 44,178)   DRY( 44,179)   DRY( 44,180)   DRY( 44,181)   DRY( 44,182)   
    DRY( 44,183)   DRY( 44,184)   DRY( 44,185)   DRY( 44,186)   DRY( 44,187)   
    DRY( 44,188)   DRY( 44,189)   DRY( 44,190)   DRY( 44,191)   DRY( 44,192)   
    DRY( 44,193)   DRY( 44,194)   DRY( 44,195)   DRY( 44,196)   DRY( 44,197)   
    DRY( 44,198)   DRY( 44,199)   DRY( 44,200)   DRY( 44,201)   DRY( 44,202)   
    DRY( 44,203)   DRY( 44,204)   DRY( 44,205)   DRY( 44,206)   DRY( 44,207)   
    DRY( 44,208)   DRY( 44,209)   DRY( 44,210)   DRY( 44,211)   DRY( 44,212)   
    DRY( 44,213)   DRY( 44,214)   DRY( 44,215)   DRY( 44,216)   DRY( 44,217)   
    DRY( 44,218)   DRY( 44,219)   DRY( 44,220)   DRY( 45,145)   DRY( 45,146)   
    DRY( 45,147)   DRY( 45,148)   DRY( 45,149)   DRY( 45,150)   DRY( 45,151)   
    DRY( 45,152)   DRY( 45,153)   DRY( 45,154)   DRY( 45,155)   DRY( 45,156)   
    DRY( 45,157)   DRY( 45,178)   DRY( 45,179)   DRY( 45,180)   DRY( 45,181)   
    DRY( 45,182)   DRY( 45,183)   DRY( 45,184)   DRY( 45,193)   DRY( 45,194)   
    DRY( 45,195)   DRY( 45,196)   DRY( 45,197)   DRY( 45,198)   DRY( 45,199)   
    DRY( 45,200)   DRY( 45,201)   DRY( 45,202)   DRY( 45,203)   DRY( 45,204)   
    DRY( 45,205)   DRY( 45,206)   DRY( 45,207)   DRY( 45,208)   DRY( 45,209)   
    DRY( 45,210)   DRY( 45,211)   DRY( 45,212)   DRY( 45,213)   DRY( 45,214)   
    DRY( 45,215)   DRY( 45,216)   DRY( 45,217)   DRY( 45,218)   DRY( 45,219)   
    DRY( 45,220)   DRY( 46,197)   DRY( 46,198)   DRY( 46,199)   DRY( 46,200)   
    DRY( 46,211)   DRY( 46,212)   DRY( 46,213)   DRY( 46,214)   DRY( 46,215)   
    DRY( 46,216)   DRY( 46,217)   DRY( 46,218)   DRY( 46,219)   DRY( 46,220)   
    DRY( 47,215)   DRY( 47,216)   DRY( 47,217)   DRY( 47,218)   DRY( 47,219)   
    DRY( 47,220)   DRY( 48,217)   DRY( 48,218)   DRY( 48,219)   DRY( 48,220)   

 CELL CONVERSIONS FOR ITER.=  3  LAYER= 16  STEP=  1  PERIOD=   1   (ROW,COL)
    DRY( 34,  1)   DRY( 34,  2)   DRY( 34,  3)   DRY( 34,  4)   DRY( 34,  5)   
    DRY( 34,  6)   DRY( 34,  7)   DRY( 34,  8)   DRY( 34,  9)   DRY( 34, 10)   
    DRY( 34, 11)   DRY( 34, 12)   DRY( 34, 13)   DRY( 34, 14)   DRY( 34, 15)   
    DRY( 34, 16)   DRY( 34, 17)   DRY( 34, 18)   DRY( 34, 19)   DRY( 34, 20)   
    DRY( 34, 21)   DRY( 34, 22)   DRY( 34, 23)   DRY( 34, 24)   DRY( 34, 25)   
    DRY( 34, 26)   DRY( 34, 27)   DRY( 34, 28)   DRY( 34, 29)   DRY( 34, 30)   
    DRY( 34, 31)   DRY( 34, 32)   DRY( 34, 33)   DRY( 34, 34)   DRY( 34, 35)   
    DRY( 34, 36)   DRY( 34, 37)   DRY( 34, 38)   DRY( 34, 39)   DRY( 34, 40)   
    DRY( 34, 41)   DRY( 34, 42)   DRY( 34, 43)   DRY( 34, 44)   DRY( 35,  1)   
    DRY( 35,  2)   DRY( 35,  3)   DRY( 35,  4)   DRY( 35,  5)   DRY( 35,  6)   
    DRY( 35,  7)   DRY( 35,  8)   DRY( 35,  9)   DRY( 35, 10)   DRY( 35, 11)   
    DRY( 35, 12)   DRY( 35, 13)   DRY( 35, 14)   DRY( 35, 15)   DRY( 35, 16)   
    DRY( 35, 17)   DRY( 35, 18)   DRY( 35, 19)   DRY( 35, 20)   DRY( 35, 21)   
    DRY( 35, 22)   DRY( 35, 23)   DRY( 35, 24)   DRY( 35, 25)   DRY( 35, 26)   
    DRY( 35, 27)   DRY( 35, 28)   DRY( 35, 29)   DRY( 35, 30)   DRY( 35, 31)   
    DRY( 35, 32)   DRY( 35, 33)   DRY( 35, 34)   DRY( 35, 35)   DRY( 35, 36)   
    DRY( 35, 37)   DRY( 35, 38)   DRY( 35, 39)   DRY( 35, 40)   DRY( 35, 41)   
    DRY( 35, 42)   DRY( 35, 43)   DRY( 35, 44)   DRY( 35, 45)   DRY( 35, 46)   
    DRY( 35, 47)   DRY( 35, 48)   DRY( 35, 49)   DRY( 35, 50)   DRY( 35, 51)   
    DRY( 35, 52)   DRY( 35, 53)   DRY( 35, 54)   DRY( 35, 55)   DRY( 35, 56)   
    DRY( 35, 57)   DRY( 35, 58)   DRY( 35, 59)   DRY( 35, 60)   DRY( 35, 61)   
    DRY( 35, 62)   DRY( 35, 63)   DRY( 35, 64)   DRY( 35, 65)   DRY( 35, 66)   
    DRY( 35, 67)   DRY( 35, 68)   DRY( 35, 69)   DRY( 35, 70)   DRY( 35, 71)   
    DRY( 35, 72)   DRY( 35, 73)   DRY( 35, 74)   DRY( 35, 75)   DRY( 35, 76)   
    DRY( 35, 77)   DRY( 35, 78)   DRY( 35, 79)   DRY( 35, 80)   DRY( 35, 81)   
    DRY( 35, 82)   DRY( 35, 83)   DRY( 35, 84)   DRY( 35, 85)   DRY( 35, 86)   
    DRY( 35, 87)   DRY( 35, 88)   DRY( 35, 89)   DRY( 35, 90)   DRY( 35, 91)   
    DRY( 35, 92)   DRY( 35, 93)   DRY( 35, 94)   DRY( 35, 95)   DRY( 35, 96)   
    DRY( 35, 97)   DRY( 35, 98)   DRY( 35, 99)   DRY( 35,100)   DRY( 35,101)   
    DRY( 35,102)   DRY( 35,103)   DRY( 35,104)   DRY( 35,105)   DRY( 35,106)   
    DRY( 35,107)   DRY( 35,108)   DRY( 35,109)   DRY( 35,110)   DRY( 35,111)   
    DRY( 35,112)   DRY( 35,113)   DRY( 35,114)   DRY( 35,115)   DRY( 35,116)   
    DRY( 35,117)   DRY( 35,118)   DRY( 35,119)   DRY( 35,120)   DRY( 35,121)   
    DRY( 35,122)   DRY( 35,123)   DRY( 35,124)   DRY( 35,125)   DRY( 35,126)   
    DRY( 35,127)   DRY( 35,128)   DRY( 35,129)   DRY( 35,130)   DRY( 35,131)   
    DRY( 35,132)   DRY( 35,133)   DRY( 35,134)   DRY( 35,135)   DRY( 35,136)   
    DRY( 35,137)   DRY( 35,138)   DRY( 35,139)   DRY( 35,140)   DRY( 35,141)   
    DRY( 35,142)   DRY( 35,143)   DRY( 35,144)   DRY( 35,145)   DRY( 35,146)   
    DRY( 35,147)   DRY( 35,148)   DRY( 35,149)   DRY( 35,150)   DRY( 35,151)   
    DRY( 35,152)   DRY( 35,153)   DRY( 35,154)   DRY( 35,155)   DRY( 35,156)   
    DRY( 35,157)   DRY( 35,158)   DRY( 35,159)   DRY( 35,160)   DRY( 35,161)   
    DRY( 35,162)   DRY( 35,163)   DRY( 35,164)   DRY( 35,165)   DRY( 35,166)   
    DRY( 35,167)   DRY( 35,168)   DRY( 35,169)   DRY( 35,170)   DRY( 35,171)   
    DRY( 35,172)   DRY( 35,173)   DRY( 35,174)   DRY( 35,175)   DRY( 35,176)   
    DRY( 35,177)   DRY( 35,178)   DRY( 35,179)   DRY( 35,180)   DRY( 35,181)   
    DRY( 35,182)   DRY( 35,183)   DRY( 35,184)   DRY( 35,185)   DRY( 35,186)   
    DRY( 35,187)   DRY( 35,188)   DRY( 35,189)   DRY( 35,190)   DRY( 35,191)   
    DRY( 35,192)   DRY( 35,193)   DRY( 35,194)   DRY( 35,195)   DRY( 35,196)   
    DRY( 35,197)   DRY( 35,198)   DRY( 35,199)   DRY( 35,200)   DRY( 35,201)   
    DRY( 35,202)   DRY( 35,203)   DRY( 35,204)   DRY( 35,205)   DRY( 35,206)   
    DRY( 35,207)   DRY( 35,208)   DRY( 35,209)   DRY( 35,210)   DRY( 35,211)   
    DRY( 36,  1)   DRY( 36,  2)   DRY( 36,  3)   DRY( 36,  4)   DRY( 36,  5)   
    DRY( 36,  6)   DRY( 36,  7)   DRY( 36,  8)   DRY( 36,  9)   DRY( 36, 10)   
    DRY( 36, 11)   DRY( 36, 12)   DRY( 36, 13)   DRY( 36, 14)   DRY( 36, 15)   
    DRY( 36, 16)   DRY( 36, 17)   DRY( 36, 18)   DRY( 36, 19)   DRY( 36, 20)   
    DRY( 36, 21)   DRY( 36, 22)   DRY( 36, 23)   DRY( 36, 24)   DRY( 36, 25)   
    DRY( 36, 26)   DRY( 36, 27)   DRY( 36, 28)   DRY( 36, 29)   DRY( 36, 30)   
    DRY( 36, 31)   DRY( 36, 32)   DRY( 36, 33)   DRY( 36, 34)   DRY( 36, 35)   
    DRY( 36, 36)   DRY( 36, 37)   DRY( 36, 38)   DRY( 36, 39)   DRY( 36, 40)   
    DRY( 36, 41)   DRY( 36, 42)   DRY( 36, 43)   DRY( 36, 44)   DRY( 36, 45)   
    DRY( 36, 46)   DRY( 36, 47)   DRY( 36, 48)   DRY( 36, 49)   DRY( 36, 50)   
    DRY( 36, 51)   DRY( 36, 52)   DRY( 36, 53)   DRY( 36, 54)   DRY( 36, 55)   
    DRY( 36, 56)   DRY( 36, 57)   DRY( 36, 58)   DRY( 36, 59)   DRY( 36, 60)   
    DRY( 36, 61)   DRY( 36, 62)   DRY( 36, 63)   DRY( 36, 64)   DRY( 36, 65)   
    DRY( 36, 66)   DRY( 36, 67)   DRY( 36, 68)   DRY( 36, 69)   DRY( 36, 70)   
    DRY( 36, 71)   DRY( 36, 72)   DRY( 36, 73)   DRY( 36, 74)   DRY( 36, 75)   
    DRY( 36, 76)   DRY( 36, 77)   DRY( 36, 78)   DRY( 36, 79)   DRY( 36, 80)   
    DRY( 36, 81)   DRY( 36, 82)   DRY( 36, 83)   DRY( 36, 84)   DRY( 36, 85)   
    DRY( 36, 86)   DRY( 36, 87)   DRY( 36, 88)   DRY( 36, 89)   DRY( 36, 90)   
    DRY( 36, 91)   DRY( 36, 92)   DRY( 36, 93)   DRY( 36, 94)   DRY( 36, 95)   
    DRY( 36, 96)   DRY( 36, 97)   DRY( 36, 98)   DRY( 36, 99)   DRY( 36,100)   
    DRY( 36,101)   DRY( 36,102)   DRY( 36,103)   DRY( 36,104)   DRY( 36,105)   
    DRY( 36,106)   DRY( 36,107)   DRY( 36,108)   DRY( 36,109)   DRY( 36,110)   
    DRY( 36,111)   DRY( 36,112)   DRY( 36,113)   DRY( 36,114)   DRY( 36,115)   
    DRY( 36,116)   DRY( 36,117)   DRY( 36,118)   DRY( 36,119)   DRY( 36,120)   
    DRY( 36,121)   DRY( 36,122)   DRY( 36,123)   DRY( 36,124)   DRY( 36,125)   
    DRY( 36,126)   DRY( 36,127)   DRY( 36,128)   DRY( 36,129)   DRY( 36,130)   
    DRY( 36,131)   DRY( 36,132)   DRY( 36,133)   DRY( 36,134)   DRY( 36,135)   
    DRY( 36,136)   DRY( 36,137)   DRY( 36,138)   DRY( 36,139)   DRY( 36,140)   
    DRY( 36,141)   DRY( 36,142)   DRY( 36,143)   DRY( 36,144)   DRY( 36,145)   
    DRY( 36,146)   DRY( 36,147)   DRY( 36,148)   DRY( 36,149)   DRY( 36,150)   
    DRY( 36,151)   DRY( 36,152)   DRY( 36,153)   DRY( 36,154)   DRY( 36,155)   
    DRY( 36,156)   DRY( 36,157)   DRY( 36,158)   DRY( 36,159)   DRY( 36,160)   
    DRY( 36,161)   DRY( 36,162)   DRY( 36,163)   DRY( 36,164)   DRY( 36,165)   
    DRY( 36,166)   DRY( 36,167)   DRY( 36,168)   DRY( 36,169)   DRY( 36,170)   
    DRY( 36,171)   DRY( 36,172)   DRY( 36,173)   DRY( 36,174)   DRY( 36,175)   
    DRY( 36,176)   DRY( 36,177)   DRY( 36,178)   DRY( 36,179)   DRY( 36,180)   
    DRY( 36,181)   DRY( 36,182)   DRY( 36,183)   DRY( 36,184)   DRY( 36,185)   
    DRY( 36,186)   DRY( 36,187)   DRY( 36,188)   DRY( 36,189)   DRY( 36,190)   
    DRY( 36,191)   DRY( 36,192)   DRY( 36,193)   DRY( 36,194)   DRY( 36,195)   
    DRY( 36,196)   DRY( 36,197)   DRY( 36,198)   DRY( 36,199)   DRY( 36,200)   
    DRY( 36,201)   DRY( 36,202)   DRY( 36,203)   DRY( 36,204)   DRY( 36,205)   
    DRY( 36,206)   DRY( 36,207)   DRY( 36,208)   DRY( 36,209)   DRY( 36,210)   
    DRY( 36,211)   DRY( 36,212)   DRY( 36,213)   DRY( 36,214)   DRY( 36,215)   
    DRY( 36,216)   DRY( 36,217)   DRY( 36,218)   DRY( 36,219)   DRY( 36,220)   
    DRY( 37,  1)   DRY( 37,  2)   DRY( 37,  3)   DRY( 37,  4)   DRY( 37,  5)   
    DRY( 37,  6)   DRY( 37,  7)   DRY( 37,  8)   DRY( 37,  9)   DRY( 37, 10)   
    DRY( 37, 11)   DRY( 37, 12)   DRY( 37, 13)   DRY( 37, 14)   DRY( 37, 15)   
    DRY( 37, 16)   DRY( 37, 17)   DRY( 37, 18)   DRY( 37, 19)   DRY( 37, 20)   
    DRY( 37, 21)   DRY( 37, 22)   DRY( 37, 23)   DRY( 37, 24)   DRY( 37, 25)   
    DRY( 37, 26)   DRY( 37, 27)   DRY( 37, 28)   DRY( 37, 29)   DRY( 37, 30)   
    DRY( 37, 31)   DRY( 37, 32)   DRY( 37, 33)   DRY( 37, 34)   DRY( 37, 35)   
    DRY( 37, 36)   DRY( 37, 37)   DRY( 37, 38)   DRY( 37, 39)   DRY( 37, 40)   
    DRY( 37, 41)   DRY( 37, 42)   DRY( 37, 43)   DRY( 37, 44)   DRY( 37, 45)   
    DRY( 37, 46)   DRY( 37, 47)   DRY( 37, 48)   DRY( 37, 49)   DRY( 37, 50)   
    DRY( 37, 51)   DRY( 37, 52)   DRY( 37, 53)   DRY( 37, 54)   DRY( 37, 55)   
    DRY( 37, 56)   DRY( 37, 57)   DRY( 37, 58)   DRY( 37, 59)   DRY( 37, 60)   
    DRY( 37, 61)   DRY( 37, 62)   DRY( 37, 63)   DRY( 37, 64)   DRY( 37, 65)   
    DRY( 37, 66)   DRY( 37, 67)   DRY( 37, 68)   DRY( 37, 69)   DRY( 37, 70)   
    DRY( 37, 71)   DRY( 37, 72)   DRY( 37, 73)   DRY( 37, 74)   DRY( 37, 75)   
    DRY( 37, 76)   DRY( 37, 77)   DRY( 37, 78)   DRY( 37, 79)   DRY( 37, 80)   
    DRY( 37, 81)   DRY( 37, 82)   DRY( 37, 83)   DRY( 37, 84)   DRY( 37, 85)   
    DRY( 37, 86)   DRY( 37, 87)   DRY( 37, 88)   DRY( 37, 89)   DRY( 37, 90)   
    DRY( 37, 91)   DRY( 37, 92)   DRY( 37, 93)   DRY( 37, 94)   DRY( 37, 95)   
    DRY( 37, 96)   DRY( 37, 97)   DRY( 37, 98)   DRY( 37, 99)   DRY( 37,100)   
    DRY( 37,101)   DRY( 37,102)   DRY( 37,103)   DRY( 37,104)   DRY( 37,105)   
    DRY( 37,106)   DRY( 37,107)   DRY( 37,108)   DRY( 37,109)   DRY( 37,110)   
    DRY( 37,111)   DRY( 37,112)   DRY( 37,113)   DRY( 37,114)   DRY( 37,115)   
    DRY( 37,116)   DRY( 37,117)   DRY( 37,118)   DRY( 37,119)   DRY( 37,120)   
    DRY( 37,121)   DRY( 37,122)   DRY( 37,123)   DRY( 37,124)   DRY( 37,125)   
    DRY( 37,126)   DRY( 37,127)   DRY( 37,128)   DRY( 37,129)   DRY( 37,130)   
    DRY( 37,131)   DRY( 37,132)   DRY( 37,133)   DRY( 37,134)   DRY( 37,135)   
    DRY( 37,136)   DRY( 37,137)   DRY( 37,138)   DRY( 37,139)   DRY( 37,140)   
    DRY( 37,141)   DRY( 37,142)   DRY( 37,143)   DRY( 37,144)   DRY( 37,145)   
    DRY( 37,146)   DRY( 37,147)   DRY( 37,148)   DRY( 37,149)   DRY( 37,150)   
    DRY( 37,151)   DRY( 37,152)   DRY( 37,153)   DRY( 37,154)   DRY( 37,155)   
    DRY( 37,156)   DRY( 37,157)   DRY( 37,158)   DRY( 37,159)   DRY( 37,160)   
    DRY( 37,161)   DRY( 37,162)   DRY( 37,163)   DRY( 37,164)   DRY( 37,165)   
    DRY( 37,166)   DRY( 37,167)   DRY( 37,168)   DRY( 37,169)   DRY( 37,170)   
    DRY( 37,171)   DRY( 37,172)   DRY( 37,173)   DRY( 37,174)   DRY( 37,175)   
    DRY( 37,176)   DRY( 37,177)   DRY( 37,178)   DRY( 37,179)   DRY( 37,180)   
    DRY( 37,181)   DRY( 37,182)   DRY( 37,183)   DRY( 37,184)   DRY( 37,185)   
    DRY( 37,186)   DRY( 37,187)   DRY( 37,188)   DRY( 37,189)   DRY( 37,190)   
    DRY( 37,191)   DRY( 37,192)   DRY( 37,193)   DRY( 37,194)   DRY( 37,195)   
    DRY( 37,196)   DRY( 37,197)   DRY( 37,198)   DRY( 37,199)   DRY( 37,200)   
    DRY( 37,201)   DRY( 37,202)   DRY( 37,203)   DRY( 37,204)   DRY( 37,205)   
    DRY( 37,206)   DRY( 37,207)   DRY( 37,208)   DRY( 37,209)   DRY( 37,210)   
    DRY( 37,211)   DRY( 37,212)   DRY( 37,213)   DRY( 37,214)   DRY( 37,215)   
    DRY( 37,216)   DRY( 37,217)   DRY( 37,218)   DRY( 37,219)   DRY( 37,220)   
    DRY( 38,  1)   DRY( 38,  2)   DRY( 38,  3)   DRY( 38,  4)   DRY( 38,  5)   
    DRY( 38,  6)   DRY( 38,  7)   DRY( 38,  8)   DRY( 38,  9)   DRY( 38, 10)   
    DRY( 38, 11)   DRY( 38, 12)   DRY( 38, 13)   DRY( 38, 14)   DRY( 38, 15)   
    DRY( 38, 16)   DRY( 38, 17)   DRY( 38, 18)   DRY( 38, 19)   DRY( 38, 20)   
    DRY( 38, 21)   DRY( 38, 22)   DRY( 38, 23)   DRY( 38, 24)   DRY( 38, 25)   
    DRY( 38, 26)   DRY( 38, 27)   DRY( 38, 28)   DRY( 38, 29)   DRY( 38, 30)   
    DRY( 38, 31)   DRY( 38, 32)   DRY( 38, 33)   DRY( 38, 34)   DRY( 38, 35)   
    DRY( 38, 36)   DRY( 38, 37)   DRY( 38, 38)   DRY( 38, 39)   DRY( 38, 40)   
    DRY( 38, 41)   DRY( 38, 42)   DRY( 38, 43)   DRY( 38, 44)   DRY( 38, 45)   
    DRY( 38, 46)   DRY( 38, 47)   DRY( 38, 48)   DRY( 38, 49)   DRY( 38, 50)   
    DRY( 38, 51)   DRY( 38, 52)   DRY( 38, 53)   DRY( 38, 54)   DRY( 38, 55)   
    DRY( 38, 56)   DRY( 38, 57)   DRY( 38, 58)   DRY( 38, 59)   DRY( 38, 60)   
    DRY( 38, 61)   DRY( 38, 62)   DRY( 38, 63)   DRY( 38, 64)   DRY( 38, 65)   
    DRY( 38, 66)   DRY( 38, 67)   DRY( 38, 68)   DRY( 38, 69)   DRY( 38, 70)   
    DRY( 38, 71)   DRY( 38, 72)   DRY( 38, 73)   DRY( 38, 74)   DRY( 38, 75)   
    DRY( 38, 76)   DRY( 38, 77)   DRY( 38, 78)   DRY( 38, 79)   DRY( 38, 80)   
    DRY( 38, 81)   DRY( 38, 82)   DRY( 38, 83)   DRY( 38, 84)   DRY( 38, 85)   
    DRY( 38, 86)   DRY( 38, 87)   DRY( 38, 88)   DRY( 38, 89)   DRY( 38, 90)   
    DRY( 38, 91)   DRY( 38, 92)   DRY( 38, 93)   DRY( 38, 94)   DRY( 38, 95)   
    DRY( 38, 96)   DRY( 38, 97)   DRY( 38, 98)   DRY( 38, 99)   DRY( 38,100)   
    DRY( 38,101)   DRY( 38,102)   DRY( 38,103)   DRY( 38,104)   DRY( 38,105)   
    DRY( 38,106)   DRY( 38,107)   DRY( 38,108)   DRY( 38,109)   DRY( 38,110)   
    DRY( 38,111)   DRY( 38,112)   DRY( 38,113)   DRY( 38,114)   DRY( 38,115)   
    DRY( 38,116)   DRY( 38,117)   DRY( 38,118)   DRY( 38,119)   DRY( 38,120)   
    DRY( 38,121)   DRY( 38,122)   DRY( 38,123)   DRY( 38,124)   DRY( 38,125)   
    DRY( 38,126)   DRY( 38,127)   DRY( 38,128)   DRY( 38,129)   DRY( 38,130)   
    DRY( 38,131)   DRY( 38,132)   DRY( 38,133)   DRY( 38,134)   DRY( 38,135)   
    DRY( 38,136)   DRY( 38,137)   DRY( 38,138)   DRY( 38,139)   DRY( 38,140)   
    DRY( 38,141)   DRY( 38,142)   DRY( 38,143)   DRY( 38,144)   DRY( 38,145)   
    DRY( 38,146)   DRY( 38,147)   DRY( 38,148)   DRY( 38,149)   DRY( 38,150)   
    DRY( 38,151)   DRY( 38,152)   DRY( 38,153)   DRY( 38,154)   DRY( 38,155)   
    DRY( 38,156)   DRY( 38,157)   DRY( 38,158)   DRY( 38,159)   DRY( 38,160)   
    DRY( 38,161)   DRY( 38,162)   DRY( 38,163)   DRY( 38,164)   DRY( 38,165)   
    DRY( 38,166)   DRY( 38,167)   DRY( 38,168)   DRY( 38,169)   DRY( 38,170)   
    DRY( 38,171)   DRY( 38,172)   DRY( 38,173)   DRY( 38,174)   DRY( 38,175)   
    DRY( 38,176)   DRY( 38,177)   DRY( 38,178)   DRY( 38,179)   DRY( 38,180)   
    DRY( 38,181)   DRY( 38,182)   DRY( 38,183)   DRY( 38,184)   DRY( 38,185)   
    DRY( 38,186)   DRY( 38,187)   DRY( 38,188)   DRY( 38,189)   DRY( 38,190)   
    DRY( 38,191)   DRY( 38,192)   DRY( 38,193)   DRY( 38,194)   DRY( 38,195)   
    DRY( 38,196)   DRY( 38,197)   DRY( 38,198)   DRY( 38,199)   DRY( 38,200)   
    DRY( 38,201)   DRY( 38,202)   DRY( 38,203)   DRY( 38,204)   DRY( 38,205)   
    DRY( 38,206)   DRY( 38,207)   DRY( 38,208)   DRY( 38,209)   DRY( 38,210)   
    DRY( 38,211)   DRY( 38,212)   DRY( 38,213)   DRY( 38,214)   DRY( 38,215)   
    DRY( 38,216)   DRY( 38,217)   DRY( 38,218)   DRY( 38,219)   DRY( 38,220)   
    DRY( 39,  1)   DRY( 39,  2)   DRY( 39,  3)   DRY( 39,  4)   DRY( 39,  5)   
    DRY( 39,  6)   DRY( 39,  7)   DRY( 39,  8)   DRY( 39,  9)   DRY( 39, 10)   
    DRY( 39, 11)   DRY( 39, 12)   DRY( 39, 13)   DRY( 39, 14)   DRY( 39, 15)   
    DRY( 39, 16)   DRY( 39, 17)   DRY( 39, 18)   DRY( 39, 19)   DRY( 39, 20)   
    DRY( 39, 21)   DRY( 39, 22)   DRY( 39, 23)   DRY( 39, 24)   DRY( 39, 25)   
    DRY( 39, 26)   DRY( 39, 27)   DRY( 39, 28)   DRY( 39, 29)   DRY( 39, 30)   
    DRY( 39, 31)   DRY( 39, 32)   DRY( 39, 33)   DRY( 39, 34)   DRY( 39, 35)   
    DRY( 39, 36)   DRY( 39, 37)   DRY( 39, 38)   DRY( 39, 39)   DRY( 39, 40)   
    DRY( 39, 41)   DRY( 39, 42)   DRY( 39, 43)   DRY( 39, 44)   DRY( 39, 45)   
    DRY( 39, 46)   DRY( 39, 47)   DRY( 39, 48)   DRY( 39, 49)   DRY( 39, 50)   
    DRY( 39, 51)   DRY( 39, 52)   DRY( 39, 53)   DRY( 39, 54)   DRY( 39, 55)   
    DRY( 39, 56)   DRY( 39, 57)   DRY( 39, 58)   DRY( 39, 59)   DRY( 39, 60)   
    DRY( 39, 61)   DRY( 39, 62)   DRY( 39, 63)   DRY( 39, 64)   DRY( 39, 65)   
    DRY( 39, 66)   DRY( 39, 67)   DRY( 39, 68)   DRY( 39, 69)   DRY( 39, 70)   
    DRY( 39, 71)   DRY( 39, 72)   DRY( 39, 73)   DRY( 39, 74)   DRY( 39, 75)   
    DRY( 39, 76)   DRY( 39, 77)   DRY( 39, 78)   DRY( 39, 79)   DRY( 39, 80)   
    DRY( 39, 81)   DRY( 39, 82)   DRY( 39, 83)   DRY( 39, 84)   DRY( 39, 85)   
    DRY( 39, 86)   DRY( 39, 87)   DRY( 39, 88)   DRY( 39, 89)   DRY( 39, 90)   
    DRY( 39, 91)   DRY( 39, 92)   DRY( 39, 93)   DRY( 39, 94)   DRY( 39, 95)   
    DRY( 39, 96)   DRY( 39, 97)   DRY( 39, 98)   DRY( 39, 99)   DRY( 39,100)   
    DRY( 39,101)   DRY( 39,102)   DRY( 39,103)   DRY( 39,104)   DRY( 39,105)   
    DRY( 39,106)   DRY( 39,107)   DRY( 39,108)   DRY( 39,109)   DRY( 39,110)   
    DRY( 39,111)   DRY( 39,112)   DRY( 39,113)   DRY( 39,114)   DRY( 39,115)   
    DRY( 39,116)   DRY( 39,117)   DRY( 39,118)   DRY( 39,119)   DRY( 39,120)   
    DRY( 39,121)   DRY( 39,122)   DRY( 39,123)   DRY( 39,124)   DRY( 39,125)   
    DRY( 39,126)   DRY( 39,127)   DRY( 39,128)   DRY( 39,129)   DRY( 39,130)   
    DRY( 39,131)   DRY( 39,132)   DRY( 39,133)   DRY( 39,134)   DRY( 39,135)   
    DRY( 39,136)   DRY( 39,137)   DRY( 39,138)   DRY( 39,139)   DRY( 39,140)   
    DRY( 39,141)   DRY( 39,142)   DRY( 39,143)   DRY( 39,144)   DRY( 39,145)   
    DRY( 39,146)   DRY( 39,147)   DRY( 39,148)   DRY( 39,149)   DRY( 39,150)   
    DRY( 39,151)   DRY( 39,152)   DRY( 39,153)   DRY( 39,154)   DRY( 39,155)   
    DRY( 39,156)   DRY( 39,157)   DRY( 39,158)   DRY( 39,159)   DRY( 39,160)   
    DRY( 39,161)   DRY( 39,162)   DRY( 39,163)   DRY( 39,164)   DRY( 39,165)   
    DRY( 39,166)   DRY( 39,167)   DRY( 39,168)   DRY( 39,169)   DRY( 39,170)   
    DRY( 39,171)   DRY( 39,172)   DRY( 39,173)   DRY( 39,174)   DRY( 39,175)   
    DRY( 39,176)   DRY( 39,177)   DRY( 39,178)   DRY( 39,179)   DRY( 39,180)   
    DRY( 39,181)   DRY( 39,182)   DRY( 39,183)   DRY( 39,184)   DRY( 39,185)   
    DRY( 39,186)   DRY( 39,187)   DRY( 39,188)   DRY( 39,189)   DRY( 39,190)   
    DRY( 39,191)   DRY( 39,192)   DRY( 39,193)   DRY( 39,194)   DRY( 39,195)   
    DRY( 39,196)   DRY( 39,197)   DRY( 39,198)   DRY( 39,199)   DRY( 39,200)   
    DRY( 39,201)   DRY( 39,202)   DRY( 39,203)   DRY( 39,204)   DRY( 39,205)   
    DRY( 39,206)   DRY( 39,207)   DRY( 39,208)   DRY( 39,209)   DRY( 39,210)   
    DRY( 39,211)   DRY( 39,212)   DRY( 39,213)   DRY( 39,214)   DRY( 39,215)   
    DRY( 39,216)   DRY( 39,217)   DRY( 39,218)   DRY( 39,219)   DRY( 39,220)   
    DRY( 40,  1)   DRY( 40,  2)   DRY( 40,  3)   DRY( 40,  4)   DRY( 40,  5)   
    DRY( 40,  6)   DRY( 40,  7)   DRY( 40,  8)   DRY( 40,  9)   DRY( 40, 10)   
    DRY( 40, 11)   DRY( 40, 12)   DRY( 40, 13)   DRY( 40, 14)   DRY( 40, 15)   
    DRY( 40, 16)   DRY( 40, 17)   DRY( 40, 18)   DRY( 40, 19)   DRY( 40, 20)   
    DRY( 40, 21)   DRY( 40, 22)   DRY( 40, 23)   DRY( 40, 24)   DRY( 40, 25)   
    DRY( 40, 26)   DRY( 40, 27)   DRY( 40, 28)   DRY( 40, 29)   DRY( 40, 30)   
    DRY( 40, 31)   DRY( 40, 32)   DRY( 40, 33)   DRY( 40, 34)   DRY( 40, 35)   
    DRY( 40, 36)   DRY( 40, 37)   DRY( 40, 38)   DRY( 40, 39)   DRY( 40, 40)   
    DRY( 40, 41)   DRY( 40, 42)   DRY( 40, 43)   DRY( 40, 44)   DRY( 40, 45)   
    DRY( 40, 46)   DRY( 40, 47)   DRY( 40, 48)   DRY( 40, 49)   DRY( 40, 50)   
    DRY( 40, 51)   DRY( 40, 52)   DRY( 40, 53)   DRY( 40, 54)   DRY( 40, 55)   
    DRY( 40, 56)   DRY( 40, 57)   DRY( 40, 58)   DRY( 40, 59)   DRY( 40, 60)   
    DRY( 40, 61)   DRY( 40, 62)   DRY( 40, 63)   DRY( 40, 64)   DRY( 40, 65)   
    DRY( 40, 66)   DRY( 40, 67)   DRY( 40, 68)   DRY( 40, 69)   DRY( 40, 70)   
    DRY( 40, 71)   DRY( 40, 72)   DRY( 40, 73)   DRY( 40, 74)   DRY( 40, 75)   
    DRY( 40, 76)   DRY( 40, 77)   DRY( 40, 78)   DRY( 40, 79)   DRY( 40, 80)   
    DRY( 40, 81)   DRY( 40, 82)   DRY( 40, 83)   DRY( 40, 84)   DRY( 40, 85)   
    DRY( 40, 86)   DRY( 40, 87)   DRY( 40, 88)   DRY( 40, 89)   DRY( 40, 90)   
    DRY( 40, 91)   DRY( 40, 92)   DRY( 40, 93)   DRY( 40, 94)   DRY( 40, 95)   
    DRY( 40, 96)   DRY( 40, 97)   DRY( 40, 98)   DRY( 40, 99)   DRY( 40,100)   
    DRY( 40,101)   DRY( 40,102)   DRY( 40,103)   DRY( 40,104)   DRY( 40,105)   
    DRY( 40,106)   DRY( 40,107)   DRY( 40,108)   DRY( 40,109)   DRY( 40,110)   
    DRY( 40,111)   DRY( 40,112)   DRY( 40,113)   DRY( 40,114)   DRY( 40,115)   
    DRY( 40,116)   DRY( 40,117)   DRY( 40,118)   DRY( 40,119)   DRY( 40,120)   
    DRY( 40,121)   DRY( 40,122)   DRY( 40,123)   DRY( 40,124)   DRY( 40,125)   
    DRY( 40,126)   DRY( 40,127)   DRY( 40,128)   DRY( 40,129)   DRY( 40,130)   
    DRY( 40,131)   DRY( 40,132)   DRY( 40,133)   DRY( 40,134)   DRY( 40,135)   
    DRY( 40,136)   DRY( 40,137)   DRY( 40,138)   DRY( 40,139)   DRY( 40,140)   
    DRY( 40,141)   DRY( 40,142)   DRY( 40,143)   DRY( 40,144)   DRY( 40,145)   
    DRY( 40,146)   DRY( 40,147)   DRY( 40,148)   DRY( 40,149)   DRY( 40,150)   
    DRY( 40,151)   DRY( 40,152)   DRY( 40,153)   DRY( 40,154)   DRY( 40,155)   
    DRY( 40,156)   DRY( 40,157)   DRY( 40,158)   DRY( 40,159)   DRY( 40,160)   
    DRY( 40,161)   DRY( 40,162)   DRY( 40,163)   DRY( 40,164)   DRY( 40,165)   
    DRY( 40,166)   DRY( 40,167)   DRY( 40,168)   DRY( 40,169)   DRY( 40,170)   
    DRY( 40,171)   DRY( 40,172)   DRY( 40,173)   DRY( 40,174)   DRY( 40,175)   
    DRY( 40,176)   DRY( 40,177)   DRY( 40,178)   DRY( 40,179)   DRY( 40,180)   
    DRY( 40,181)   DRY( 40,182)   DRY( 40,183)   DRY( 40,184)   DRY( 40,185)   
    DRY( 40,186)   DRY( 40,187)   DRY( 40,188)   DRY( 40,189)   DRY( 40,190)   
    DRY( 40,191)   DRY( 40,192)   DRY( 40,193)   DRY( 40,194)   DRY( 40,195)   
    DRY( 40,196)   DRY( 40,197)   DRY( 40,198)   DRY( 40,199)   DRY( 40,200)   
    DRY( 40,201)   DRY( 40,202)   DRY( 40,203)   DRY( 40,204)   DRY( 40,205)   
    DRY( 40,206)   DRY( 40,207)   DRY( 40,208)   DRY( 40,209)   DRY( 40,210)   
    DRY( 40,211)   DRY( 40,212)   DRY( 40,213)   DRY( 40,214)   DRY( 40,215)   
    DRY( 40,216)   DRY( 40,217)   DRY( 40,218)   DRY( 40,219)   DRY( 40,220)   
    DRY( 41,  1)   DRY( 41,  2)   DRY( 41,  3)   DRY( 41,  4)   DRY( 41,  5)   
    DRY( 41,  6)   DRY( 41,  7)   DRY( 41,  8)   DRY( 41,  9)   DRY( 41, 10)   
    DRY( 41, 11)   DRY( 41, 12)   DRY( 41, 13)   DRY( 41, 14)   DRY( 41, 15)   
    DRY( 41, 16)   DRY( 41, 17)   DRY( 41, 18)   DRY( 41, 19)   DRY( 41, 20)   
    DRY( 41, 21)   DRY( 41, 22)   DRY( 41, 23)   DRY( 41, 24)   DRY( 41, 25)   
    DRY( 41, 26)   DRY( 41, 27)   DRY( 41, 28)   DRY( 41, 29)   DRY( 41, 30)   
    DRY( 41, 31)   DRY( 41, 32)   DRY( 41, 33)   DRY( 41, 34)   DRY( 41, 35)   
    DRY( 41, 36)   DRY( 41, 37)   DRY( 41, 38)   DRY( 41, 39)   DRY( 41, 40)   
    DRY( 41, 41)   DRY( 41, 42)   DRY( 41, 43)   DRY( 41, 44)   DRY( 41, 45)   
    DRY( 41, 46)   DRY( 41, 47)   DRY( 41, 48)   DRY( 41, 49)   DRY( 41, 50)   
    DRY( 41, 51)   DRY( 41, 52)   DRY( 41, 53)   DRY( 41, 54)   DRY( 41, 55)   
    DRY( 41, 56)   DRY( 41, 57)   DRY( 41, 58)   DRY( 41, 59)   DRY( 41, 60)   
    DRY( 41, 61)   DRY( 41, 62)   DRY( 41, 63)   DRY( 41, 64)   DRY( 41, 65)   
    DRY( 41, 66)   DRY( 41, 67)   DRY( 41, 68)   DRY( 41, 69)   DRY( 41, 70)   
    DRY( 41, 71)   DRY( 41, 72)   DRY( 41, 73)   DRY( 41, 74)   DRY( 41, 75)   
    DRY( 41, 76)   DRY( 41, 77)   DRY( 41, 78)   DRY( 41, 79)   DRY( 41, 80)   
    DRY( 41, 81)   DRY( 41, 82)   DRY( 41, 83)   DRY( 41, 84)   DRY( 41, 85)   
    DRY( 41, 86)   DRY( 41, 87)   DRY( 41, 88)   DRY( 41, 89)   DRY( 41, 90)   
    DRY( 41, 91)   DRY( 41, 92)   DRY( 41, 93)   DRY( 41, 94)   DRY( 41, 95)   
    DRY( 41, 96)   DRY( 41, 97)   DRY( 41, 98)   DRY( 41, 99)   DRY( 41,100)   
    DRY( 41,101)   DRY( 41,102)   DRY( 41,103)   DRY( 41,104)   DRY( 41,105)   
    DRY( 41,106)   DRY( 41,107)   DRY( 41,108)   DRY( 41,109)   DRY( 41,110)   
    DRY( 41,111)   DRY( 41,112)   DRY( 41,113)   DRY( 41,114)   DRY( 41,115)   
    DRY( 41,116)   DRY( 41,117)   DRY( 41,118)   DRY( 41,119)   DRY( 41,120)   
    DRY( 41,121)   DRY( 41,122)   DRY( 41,123)   DRY( 41,124)   DRY( 41,125)   
    DRY( 41,126)   DRY( 41,127)   DRY( 41,128)   DRY( 41,129)   DRY( 41,130)   
    DRY( 41,131)   DRY( 41,132)   DRY( 41,133)   DRY( 41,134)   DRY( 41,135)   
    DRY( 41,136)   DRY( 41,137)   DRY( 41,138)   DRY( 41,139)   DRY( 41,140)   
    DRY( 41,141)   DRY( 41,142)   DRY( 41,143)   DRY( 41,144)   DRY( 41,145)   
    DRY( 41,146)   DRY( 41,147)   DRY( 41,148)   DRY( 41,149)   DRY( 41,150)   
    DRY( 41,151)   DRY( 41,152)   DRY( 41,153)   DRY( 41,154)   DRY( 41,155)   
    DRY( 41,156)   DRY( 41,157)   DRY( 41,158)   DRY( 41,159)   DRY( 41,160)   
    DRY( 41,161)   DRY( 41,162)   DRY( 41,163)   DRY( 41,164)   DRY( 41,165)   
    DRY( 41,166)   DRY( 41,167)   DRY( 41,168)   DRY( 41,169)   DRY( 41,170)   
    DRY( 41,171)   DRY( 41,172)   DRY( 41,173)   DRY( 41,174)   DRY( 41,175)   
    DRY( 41,176)   DRY( 41,177)   DRY( 41,178)   DRY( 41,179)   DRY( 41,180)   
    DRY( 41,181)   DRY( 41,182)   DRY( 41,183)   DRY( 41,184)   DRY( 41,185)   
    DRY( 41,186)   DRY( 41,187)   DRY( 41,188)   DRY( 41,189)   DRY( 41,190)   
    DRY( 41,191)   DRY( 41,192)   DRY( 41,193)   DRY( 41,194)   DRY( 41,195)   
    DRY( 41,196)   DRY( 41,197)   DRY( 41,198)   DRY( 41,199)   DRY( 41,200)   
    DRY( 41,201)   DRY( 41,202)   DRY( 41,203)   DRY( 41,204)   DRY( 41,205)   
    DRY( 41,206)   DRY( 41,207)   DRY( 41,208)   DRY( 41,209)   DRY( 41,210)   
    DRY( 41,211)   DRY( 41,212)   DRY( 41,213)   DRY( 41,214)   DRY( 41,215)   
    DRY( 41,216)   DRY( 41,217)   DRY( 41,218)   DRY( 41,219)   DRY( 41,220)   
    DRY( 42,  5)   DRY( 42,  6)   DRY( 42,  7)   DRY( 42,  8)   DRY( 42,  9)   
    DRY( 42, 10)   DRY( 42, 11)   DRY( 42, 12)   DRY( 42, 13)   DRY( 42, 14)   
    DRY( 42, 15)   DRY( 42, 16)   DRY( 42, 17)   DRY( 42, 18)   DRY( 42, 19)   
    DRY( 42, 20)   DRY( 42, 21)   DRY( 42, 22)   DRY( 42, 23)   DRY( 42, 24)   
    DRY( 42, 25)   DRY( 42, 26)   DRY( 42, 27)   DRY( 42, 28)   DRY( 42, 29)   
    DRY( 42, 30)   DRY( 42, 31)   DRY( 42, 32)   DRY( 42, 33)   DRY( 42, 34)   
    DRY( 42, 35)   DRY( 42, 36)   DRY( 42, 37)   DRY( 42, 38)   DRY( 42, 39)   
    DRY( 42, 40)   DRY( 42, 41)   DRY( 42, 42)   DRY( 42, 43)   DRY( 42, 44)   
    DRY( 42, 45)   DRY( 42, 46)   DRY( 42, 47)   DRY( 42, 48)   DRY( 42, 49)   
    DRY( 42, 50)   DRY( 42, 51)   DRY( 42, 52)   DRY( 42, 53)   DRY( 42, 54)   
    DRY( 42, 55)   DRY( 42, 56)   DRY( 42, 57)   DRY( 42, 58)   DRY( 42, 59)   
    DRY( 42, 60)   DRY( 42, 61)   DRY( 42, 62)   DRY( 42, 63)   DRY( 42, 64)   
    DRY( 42, 65)   DRY( 42, 66)   DRY( 42, 67)   DRY( 42, 68)   DRY( 42, 69)   
    DRY( 42, 70)   DRY( 42, 71)   DRY( 42, 72)   DRY( 42, 73)   DRY( 42, 74)   
    DRY( 42, 75)   DRY( 42, 76)   DRY( 42, 77)   DRY( 42, 78)   DRY( 42, 79)   
    DRY( 42, 80)   DRY( 42, 81)   DRY( 42, 82)   DRY( 42, 83)   DRY( 42, 84)   
    DRY( 42, 85)   DRY( 42, 86)   DRY( 42, 87)   DRY( 42, 88)   DRY( 42, 89)   
    DRY( 42, 90)   DRY( 42, 91)   DRY( 42, 92)   DRY( 42, 93)   DRY( 42, 94)   
    DRY( 42, 95)   DRY( 42, 96)   DRY( 42, 97)   DRY( 42, 98)   DRY( 42, 99)   
    DRY( 42,100)   DRY( 42,101)   DRY( 42,102)   DRY( 42,103)   DRY( 42,104)   
    DRY( 42,105)   DRY( 42,106)   DRY( 42,107)   DRY( 42,108)   DRY( 42,109)   
    DRY( 42,110)   DRY( 42,111)   DRY( 42,112)   DRY( 42,113)   DRY( 42,114)   
    DRY( 42,115)   DRY( 42,116)   DRY( 42,117)   DRY( 42,118)   DRY( 42,119)   
    DRY( 42,120)   DRY( 42,121)   DRY( 42,122)   DRY( 42,123)   DRY( 42,124)   
    DRY( 42,125)   DRY( 42,126)   DRY( 42,127)   DRY( 42,128)   DRY( 42,129)   
    DRY( 42,130)   DRY( 42,131)   DRY( 42,132)   DRY( 42,133)   DRY( 42,134)   
    DRY( 42,135)   DRY( 42,136)   DRY( 42,137)   DRY( 42,138)   DRY( 42,139)   
    DRY( 42,140)   DRY( 42,141)   DRY( 42,142)   DRY( 42,143)   DRY( 42,144)   
    DRY( 42,145)   DRY( 42,146)   DRY( 42,147)   DRY( 42,148)   DRY( 42,149)   
    DRY( 42,150)   DRY( 42,151)   DRY( 42,152)   DRY( 42,153)   DRY( 42,154)   
    DRY( 42,155)   DRY( 42,156)   DRY( 42,157)   DRY( 42,158)   DRY( 42,159)   
    DRY( 42,160)   DRY( 42,161)   DRY( 42,162)   DRY( 42,163)   DRY( 42,164)   
    DRY( 42,165)   DRY( 42,166)   DRY( 42,167)   DRY( 42,168)   DRY( 42,169)   
    DRY( 42,170)   DRY( 42,171)   DRY( 42,172)   DRY( 42,173)   DRY( 42,174)   
    DRY( 42,175)   DRY( 42,176)   DRY( 42,177)   DRY( 42,178)   DRY( 42,179)   
    DRY( 42,180)   DRY( 42,181)   DRY( 42,182)   DRY( 42,183)   DRY( 42,184)   
    DRY( 42,185)   DRY( 42,186)   DRY( 42,187)   DRY( 42,188)   DRY( 42,189)   
    DRY( 42,190)   DRY( 42,191)   DRY( 42,192)   DRY( 42,193)   DRY( 42,194)   
    DRY( 42,195)   DRY( 42,196)   DRY( 42,197)   DRY( 42,198)   DRY( 42,199)   
    DRY( 42,200)   DRY( 42,201)   DRY( 42,202)   DRY( 42,203)   DRY( 42,204)   
    DRY( 42,205)   DRY( 42,206)   DRY( 42,207)   DRY( 42,208)   DRY( 42,209)   
    DRY( 42,210)   DRY( 42,211)   DRY( 42,212)   DRY( 42,213)   DRY( 42,214)   
    DRY( 42,215)   DRY( 42,216)   DRY( 42,217)   DRY( 42,218)   DRY( 42,219)   
    DRY( 42,220)   DRY( 43,  9)   DRY( 43, 10)   DRY( 43, 11)   DRY( 43, 12)   
    DRY( 43, 13)   DRY( 43, 14)   DRY( 43, 15)   DRY( 43, 16)   DRY( 43, 17)   
    DRY( 43, 18)   DRY( 43, 19)   DRY( 43, 20)   DRY( 43, 21)   DRY( 43, 22)   
    DRY( 43, 23)   DRY( 43, 24)   DRY( 43, 25)   DRY( 43, 26)   DRY( 43, 27)   
    DRY( 43, 28)   DRY( 43, 29)   DRY( 43, 30)   DRY( 43, 31)   DRY( 43, 32)   
    DRY( 43, 33)   DRY( 43, 34)   DRY( 43, 35)   DRY( 43, 36)   DRY( 43, 37)   
    DRY( 43, 38)   DRY( 43, 39)   DRY( 43, 40)   DRY( 43, 41)   DRY( 43, 42)   
    DRY( 43, 43)   DRY( 43, 44)   DRY( 43, 45)   DRY( 43, 46)   DRY( 43, 47)   
    DRY( 43, 48)   DRY( 43, 49)   DRY( 43, 50)   DRY( 43, 51)   DRY( 43, 52)   
    DRY( 43, 53)   DRY( 43, 54)   DRY( 43, 55)   DRY( 43, 56)   DRY( 43, 57)   
    DRY( 43, 58)   DRY( 43, 59)   DRY( 43, 60)   DRY( 43, 61)   DRY( 43, 62)   
    DRY( 43, 63)   DRY( 43, 64)   DRY( 43, 65)   DRY( 43, 66)   DRY( 43, 67)   
    DRY( 43, 68)   DRY( 43, 69)   DRY( 43, 70)   DRY( 43, 71)   DRY( 43, 72)   
    DRY( 43, 73)   DRY( 43, 74)   DRY( 43, 75)   DRY( 43, 76)   DRY( 43, 77)   
    DRY( 43, 78)   DRY( 43, 79)   DRY( 43, 80)   DRY( 43, 81)   DRY( 43, 82)   
    DRY( 43, 83)   DRY( 43, 84)   DRY( 43, 85)   DRY( 43, 86)   DRY( 43, 87)   
    DRY( 43, 88)   DRY( 43, 89)   DRY( 43, 90)   DRY( 43, 91)   DRY( 43, 92)   
    DRY( 43, 93)   DRY( 43, 94)   DRY( 43, 95)   DRY( 43, 96)   DRY( 43, 97)   
    DRY( 43, 98)   DRY( 43, 99)   DRY( 43,100)   DRY( 43,101)   DRY( 43,102)   
    DRY( 43,103)   DRY( 43,104)   DRY( 43,105)   DRY( 43,106)   DRY( 43,107)   
    DRY( 43,108)   DRY( 43,109)   DRY( 43,110)   DRY( 43,111)   DRY( 43,112)   
    DRY( 43,113)   DRY( 43,114)   DRY( 43,115)   DRY( 43,116)   DRY( 43,117)   
    DRY( 43,118)   DRY( 43,119)   DRY( 43,120)   DRY( 43,121)   DRY( 43,122)   
    DRY( 43,123)   DRY( 43,124)   DRY( 43,125)   DRY( 43,126)   DRY( 43,127)   
    DRY( 43,128)   DRY( 43,129)   DRY( 43,130)   DRY( 43,131)   DRY( 43,132)   
    DRY( 43,133)   DRY( 43,134)   DRY( 43,135)   DRY( 43,136)   DRY( 43,137)   
    DRY( 43,138)   DRY( 43,139)   DRY( 43,140)   DRY( 43,141)   DRY( 43,142)   
    DRY( 43,143)   DRY( 43,144)   DRY( 43,145)   DRY( 43,146)   DRY( 43,147)   
    DRY( 43,148)   DRY( 43,149)   DRY( 43,150)   DRY( 43,151)   DRY( 43,152)   
    DRY( 43,153)   DRY( 43,154)   DRY( 43,155)   DRY( 43,156)   DRY( 43,157)   
    DRY( 43,158)   DRY( 43,159)   DRY( 43,160)   DRY( 43,161)   DRY( 43,162)   
    DRY( 43,163)   DRY( 43,164)   DRY( 43,165)   DRY( 43,166)   DRY( 43,167)   
    DRY( 43,168)   DRY( 43,169)   DRY( 43,170)   DRY( 43,171)   DRY( 43,172)   
    DRY( 43,173)   DRY( 43,174)   DRY( 43,175)   DRY( 43,176)   DRY( 43,177)   
    DRY( 43,178)   DRY( 43,179)   DRY( 43,180)   DRY( 43,181)   DRY( 43,182)   
    DRY( 43,183)   DRY( 43,184)   DRY( 43,185)   DRY( 43,186)   DRY( 43,187)   
    DRY( 43,188)   DRY( 43,189)   DRY( 43,190)   DRY( 43,191)   DRY( 43,192)   
    DRY( 43,193)   DRY( 43,194)   DRY( 43,195)   DRY( 43,196)   DRY( 43,197)   
    DRY( 43,198)   DRY( 43,199)   DRY( 43,200)   DRY( 43,201)   DRY( 43,202)   
    DRY( 43,203)   DRY( 43,204)   DRY( 43,205)   DRY( 43,206)   DRY( 43,207)   
    DRY( 43,208)   DRY( 43,209)   DRY( 43,210)   DRY( 43,211)   DRY( 43,212)   
    DRY( 43,213)   DRY( 43,214)   DRY( 43,215)   DRY( 43,216)   DRY( 43,217)   
    DRY( 43,218)   DRY( 43,219)   DRY( 43,220)   DRY( 44, 13)   DRY( 44, 14)   
    DRY( 44, 15)   DRY( 44, 16)   DRY( 44, 17)   DRY( 44, 18)   DRY( 44, 19)   
    DRY( 44, 20)   DRY( 44, 21)   DRY( 44, 22)   DRY( 44, 23)   DRY( 44, 24)   
    DRY( 44, 25)   DRY( 44, 26)   DRY( 44, 27)   DRY( 44, 28)   DRY( 44, 29)   
    DRY( 44, 30)   DRY( 44, 31)   DRY( 44, 32)   DRY( 44, 33)   DRY( 44, 34)   
    DRY( 44, 35)   DRY( 44, 36)   DRY( 44, 37)   DRY( 44, 38)   DRY( 44, 39)   
    DRY( 44, 40)   DRY( 44, 41)   DRY( 44, 42)   DRY( 44, 43)   DRY( 44, 44)   
    DRY( 44, 45)   DRY( 44, 46)   DRY( 44, 47)   DRY( 44, 48)   DRY( 44, 49)   
    DRY( 44, 50)   DRY( 44, 51)   DRY( 44, 52)   DRY( 44, 53)   DRY( 44, 54)   
    DRY( 44, 55)   DRY( 44, 56)   DRY( 44, 57)   DRY( 44, 58)   DRY( 44, 59)   
    DRY( 44, 60)   DRY( 44, 61)   DRY( 44, 62)   DRY( 44, 63)   DRY( 44, 64)   
    DRY( 44, 65)   DRY( 44, 66)   DRY( 44, 67)   DRY( 44, 68)   DRY( 44, 69)   
    DRY( 44, 70)   DRY( 44, 71)   DRY( 44, 72)   DRY( 44, 73)   DRY( 44, 74)   
    DRY( 44, 75)   DRY( 44, 76)   DRY( 44, 77)   DRY( 44, 78)   DRY( 44, 79)   
    DRY( 44, 80)   DRY( 44, 81)   DRY( 44, 82)   DRY( 44, 83)   DRY( 44, 84)   
    DRY( 44, 85)   DRY( 44, 86)   DRY( 44, 87)   DRY( 44, 88)   DRY( 44, 89)   
    DRY( 44, 90)   DRY( 44, 91)   DRY( 44, 92)   DRY( 44, 93)   DRY( 44, 94)   
    DRY( 44, 95)   DRY( 44, 96)   DRY( 44, 97)   DRY( 44, 98)   DRY( 44, 99)   
    DRY( 44,100)   DRY( 44,101)   DRY( 44,102)   DRY( 44,103)   DRY( 44,104)   
    DRY( 44,105)   DRY( 44,106)   DRY( 44,107)   DRY( 44,108)   DRY( 44,109)   
    DRY( 44,110)   DRY( 44,111)   DRY( 44,112)   DRY( 44,113)   DRY( 44,114)   
    DRY( 44,115)   DRY( 44,116)   DRY( 44,117)   DRY( 44,118)   DRY( 44,119)   
    DRY( 44,120)   DRY( 44,121)   DRY( 44,122)   DRY( 44,123)   DRY( 44,124)   
    DRY( 44,125)   DRY( 44,126)   DRY( 44,127)   DRY( 44,128)   DRY( 44,129)   
    DRY( 44,130)   DRY( 44,131)   DRY( 44,132)   DRY( 44,133)   DRY( 44,134)   
    DRY( 44,135)   DRY( 44,136)   DRY( 44,137)   DRY( 44,138)   DRY( 44,139)   
    DRY( 44,140)   DRY( 44,141)   DRY( 44,142)   DRY( 44,143)   DRY( 44,144)   
    DRY( 44,145)   DRY( 44,146)   DRY( 44,147)   DRY( 44,148)   DRY( 44,149)   
    DRY( 44,150)   DRY( 44,151)   DRY( 44,152)   DRY( 44,153)   DRY( 44,154)   
    DRY( 44,155)   DRY( 44,156)   DRY( 44,157)   DRY( 44,158)   DRY( 44,159)   
    DRY( 44,160)   DRY( 44,161)   DRY( 44,162)   DRY( 44,163)   DRY( 44,164)   
    DRY( 44,165)   DRY( 44,166)   DRY( 44,167)   DRY( 44,168)   DRY( 44,169)   
    DRY( 44,170)   DRY( 44,171)   DRY( 44,172)   DRY( 44,173)   DRY( 44,174)   
    DRY( 44,175)   DRY( 44,176)   DRY( 44,177)   DRY( 44,178)   DRY( 44,179)   
    DRY( 44,180)   DRY( 44,181)   DRY( 44,182)   DRY( 44,183)   DRY( 44,184)   
    DRY( 44,185)   DRY( 44,186)   DRY( 44,187)   DRY( 44,188)   DRY( 44,189)   
    DRY( 44,190)   DRY( 44,191)   DRY( 44,192)   DRY( 44,193)   DRY( 44,194)   
    DRY( 44,195)   DRY( 44,196)   DRY( 44,197)   DRY( 44,198)   DRY( 44,199)   
    DRY( 44,200)   DRY( 44,201)   DRY( 44,202)   DRY( 44,203)   DRY( 44,204)   
    DRY( 44,205)   DRY( 44,206)   DRY( 44,207)   DRY( 44,208)   DRY( 44,209)   
    DRY( 44,210)   DRY( 44,211)   DRY( 44,212)   DRY( 44,213)   DRY( 44,214)   
    DRY( 44,215)   DRY( 44,216)   DRY( 44,217)   DRY( 44,218)   DRY( 44,219)   
    DRY( 44,220)   DRY( 45, 17)   DRY( 45, 18)   DRY( 45, 19)   DRY( 45, 20)   
    DRY( 45, 21)   DRY( 45, 22)   DRY( 45, 23)   DRY( 45, 24)   DRY( 45, 25)   
    DRY( 45, 26)   DRY( 45, 27)   DRY( 45, 28)   DRY( 45, 29)   DRY( 45, 30)   
    DRY( 45, 31)   DRY( 45, 32)   DRY( 45, 33)   DRY( 45, 34)   DRY( 45, 35)   
    DRY( 45, 36)   DRY( 45, 37)   DRY( 45, 38)   DRY( 45, 39)   DRY( 45, 40)   
    DRY( 45, 41)   DRY( 45, 42)   DRY( 45, 43)   DRY( 45, 44)   DRY( 45, 45)   
    DRY( 45, 46)   DRY( 45, 47)   DRY( 45, 48)   DRY( 45, 49)   DRY( 45, 50)   
    DRY( 45, 51)   DRY( 45, 52)   DRY( 45, 53)   DRY( 45, 54)   DRY( 45, 55)   
    DRY( 45, 56)   DRY( 45, 57)   DRY( 45, 58)   DRY( 45, 59)   DRY( 45, 60)   
    DRY( 45, 61)   DRY( 45, 62)   DRY( 45, 63)   DRY( 45, 64)   DRY( 45, 65)   
    DRY( 45, 66)   DRY( 45, 67)   DRY( 45, 68)   DRY( 45, 69)   DRY( 45, 70)   
    DRY( 45, 71)   DRY( 45, 72)   DRY( 45, 73)   DRY( 45, 74)   DRY( 45, 75)   
    DRY( 45, 76)   DRY( 45, 77)   DRY( 45, 78)   DRY( 45, 79)   DRY( 45, 80)   
    DRY( 45, 81)   DRY( 45, 82)   DRY( 45, 83)   DRY( 45, 84)   DRY( 45, 85)   
    DRY( 45, 86)   DRY( 45, 87)   DRY( 45, 88)   DRY( 45, 89)   DRY( 45, 90)   
    DRY( 45, 91)   DRY( 45, 92)   DRY( 45, 93)   DRY( 45, 94)   DRY( 45, 95)   
    DRY( 45, 96)   DRY( 45, 97)   DRY( 45, 98)   DRY( 45, 99)   DRY( 45,100)   
    DRY( 45,101)   DRY( 45,102)   DRY( 45,103)   DRY( 45,104)   DRY( 45,105)   
    DRY( 45,106)   DRY( 45,107)   DRY( 45,108)   DRY( 45,109)   DRY( 45,110)   
    DRY( 45,111)   DRY( 45,112)   DRY( 45,113)   DRY( 45,114)   DRY( 45,115)   
    DRY( 45,116)   DRY( 45,117)   DRY( 45,118)   DRY( 45,119)   DRY( 45,120)   
    DRY( 45,121)   DRY( 45,122)   DRY( 45,123)   DRY( 45,124)   DRY( 45,125)   
    DRY( 45,126)   DRY( 45,127)   DRY( 45,128)   DRY( 45,129)   DRY( 45,130)   
    DRY( 45,131)   DRY( 45,132)   DRY( 45,133)   DRY( 45,134)   DRY( 45,135)   
    DRY( 45,136)   DRY( 45,137)   DRY( 45,138)   DRY( 45,139)   DRY( 45,140)   
    DRY( 45,141)   DRY( 45,142)   DRY( 45,143)   DRY( 45,144)   DRY( 45,145)   
    DRY( 45,146)   DRY( 45,147)   DRY( 45,148)   DRY( 45,149)   DRY( 45,150)   
    DRY( 45,151)   DRY( 45,152)   DRY( 45,153)   DRY( 45,154)   DRY( 45,155)   
    DRY( 45,156)   DRY( 45,157)   DRY( 45,158)   DRY( 45,159)   DRY( 45,160)   
    DRY( 45,161)   DRY( 45,162)   DRY( 45,163)   DRY( 45,164)   DRY( 45,165)   
    DRY( 45,166)   DRY( 45,167)   DRY( 45,168)   DRY( 45,169)   DRY( 45,170)   
    DRY( 45,171)   DRY( 45,172)   DRY( 45,173)   DRY( 45,174)   DRY( 45,175)   
    DRY( 45,176)   DRY( 45,177)   DRY( 45,178)   DRY( 45,179)   DRY( 45,180)   
    DRY( 45,181)   DRY( 45,182)   DRY( 45,183)   DRY( 45,184)   DRY( 45,185)   
    DRY( 45,186)   DRY( 45,187)   DRY( 45,188)   DRY( 45,189)   DRY( 45,190)   
    DRY( 45,191)   DRY( 45,192)   DRY( 45,193)   DRY( 45,194)   DRY( 45,195)   
    DRY( 45,196)   DRY( 45,197)   DRY( 45,198)   DRY( 45,199)   DRY( 45,200)   
    DRY( 45,201)   DRY( 45,202)   DRY( 45,203)   DRY( 45,204)   DRY( 45,205)   
    DRY( 45,206)   DRY( 45,207)   DRY( 45,208)   DRY( 45,209)   DRY( 45,210)   
    DRY( 45,211)   DRY( 45,212)   DRY( 45,213)   DRY( 45,214)   DRY( 45,215)   
    DRY( 45,216)   DRY( 45,217)   DRY( 45,218)   DRY( 45,219)   DRY( 45,220)   
    DRY( 46, 21)   DRY( 46, 22)   DRY( 46, 23)   DRY( 46, 24)   DRY( 46, 25)   
    DRY( 46, 26)   DRY( 46, 27)   DRY( 46, 28)   DRY( 46, 29)   DRY( 46, 30)   
    DRY( 46, 31)   DRY( 46, 32)   DRY( 46, 33)   DRY( 46, 34)   DRY( 46, 35)   
    DRY( 46, 36)   DRY( 46, 37)   DRY( 46, 38)   DRY( 46, 39)   DRY( 46, 40)   
    DRY( 46, 41)   DRY( 46, 42)   DRY( 46, 43)   DRY( 46, 44)   DRY( 46, 45)   
    DRY( 46, 46)   DRY( 46, 47)   DRY( 46, 48)   DRY( 46, 49)   DRY( 46, 50)   
    DRY( 46, 51)   DRY( 46, 52)   DRY( 46, 53)   DRY( 46, 54)   DRY( 46, 55)   
    DRY( 46, 56)   DRY( 46, 57)   DRY( 46, 58)   DRY( 46, 59)   DRY( 46, 60)   
    DRY( 46, 61)   DRY( 46, 62)   DRY( 46, 63)   DRY( 46, 64)   DRY( 46, 65)   
    DRY( 46, 66)   DRY( 46, 67)   DRY( 46, 68)   DRY( 46, 69)   DRY( 46, 70)   
    DRY( 46, 71)   DRY( 46, 72)   DRY( 46, 73)   DRY( 46, 74)   DRY( 46, 75)   
    DRY( 46, 76)   DRY( 46, 77)   DRY( 46, 78)   DRY( 46, 79)   DRY( 46, 80)   
    DRY( 46, 81)   DRY( 46, 82)   DRY( 46, 83)   DRY( 46, 84)   DRY( 46, 85)   
    DRY( 46, 86)   DRY( 46, 87)   DRY( 46, 88)   DRY( 46, 89)   DRY( 46, 90)   
    DRY( 46, 91)   DRY( 46, 92)   DRY( 46, 93)   DRY( 46, 94)   DRY( 46, 95)   
    DRY( 46, 96)   DRY( 46, 97)   DRY( 46, 98)   DRY( 46, 99)   DRY( 46,100)   
    DRY( 46,101)   DRY( 46,102)   DRY( 46,103)   DRY( 46,104)   DRY( 46,105)   
    DRY( 46,106)   DRY( 46,107)   DRY( 46,108)   DRY( 46,109)   DRY( 46,110)   
    DRY( 46,111)   DRY( 46,112)   DRY( 46,113)   DRY( 46,114)   DRY( 46,115)   
    DRY( 46,116)   DRY( 46,117)   DRY( 46,118)   DRY( 46,119)   DRY( 46,120)   
    DRY( 46,121)   DRY( 46,122)   DRY( 46,123)   DRY( 46,124)   DRY( 46,125)   
    DRY( 46,126)   DRY( 46,127)   DRY( 46,128)   DRY( 46,129)   DRY( 46,130)   
    DRY( 46,131)   DRY( 46,132)   DRY( 46,133)   DRY( 46,134)   DRY( 46,135)   
    DRY( 46,136)   DRY( 46,137)   DRY( 46,138)   DRY( 46,139)   DRY( 46,140)   
    DRY( 46,141)   DRY( 46,142)   DRY( 46,143)   DRY( 46,144)   DRY( 46,145)   
    DRY( 46,146)   DRY( 46,147)   DRY( 46,148)   DRY( 46,149)   DRY( 46,150)   
    DRY( 46,151)   DRY( 46,152)   DRY( 46,153)   DRY( 46,154)   DRY( 46,155)   
    DRY( 46,156)   DRY( 46,157)   DRY( 46,158)   DRY( 46,159)   DRY( 46,160)   
    DRY( 46,161)   DRY( 46,162)   DRY( 46,163)   DRY( 46,164)   DRY( 46,165)   
    DRY( 46,166)   DRY( 46,167)   DRY( 46,168)   DRY( 46,169)   DRY( 46,170)   
    DRY( 46,171)   DRY( 46,172)   DRY( 46,173)   DRY( 46,174)   DRY( 46,175)   
    DRY( 46,176)   DRY( 46,177)   DRY( 46,178)   DRY( 46,179)   DRY( 46,180)   
    DRY( 46,181)   DRY( 46,182)   DRY( 46,183)   DRY( 46,184)   DRY( 46,185)   
    DRY( 46,186)   DRY( 46,187)   DRY( 46,188)   DRY( 46,189)   DRY( 46,190)   
    DRY( 46,191)   DRY( 46,192)   DRY( 46,193)   DRY( 46,194)   DRY( 46,195)   
    DRY( 46,196)   DRY( 46,197)   DRY( 46,198)   DRY( 46,199)   DRY( 46,200)   
    DRY( 46,201)   DRY( 46,202)   DRY( 46,203)   DRY( 46,204)   DRY( 46,205)   
    DRY( 46,206)   DRY( 46,207)   DRY( 46,208)   DRY( 46,209)   DRY( 46,210)   
    DRY( 46,211)   DRY( 46,212)   DRY( 46,213)   DRY( 46,214)   DRY( 46,215)   
    DRY( 46,216)   DRY( 46,217)   DRY( 46,218)   DRY( 46,219)   DRY( 46,220)   
    DRY( 47, 29)   DRY( 47, 30)   DRY( 47, 31)   DRY( 47, 32)   DRY( 47, 33)   
    DRY( 47, 34)   DRY( 47, 35)   DRY( 47, 36)   DRY( 47, 37)   DRY( 47, 38)   
    DRY( 47, 39)   DRY( 47, 40)   DRY( 47, 41)   DRY( 47, 42)   DRY( 47, 43)   
    DRY( 47, 44)   DRY( 47, 45)   DRY( 47, 46)   DRY( 47, 47)   DRY( 47, 48)   
    DRY( 47, 49)   DRY( 47, 50)   DRY( 47, 51)   DRY( 47, 52)   DRY( 47, 53)   
    DRY( 47, 54)   DRY( 47, 55)   DRY( 47, 56)   DRY( 47, 57)   DRY( 47, 58)   
    DRY( 47, 59)   DRY( 47, 60)   DRY( 47, 61)   DRY( 47, 62)   DRY( 47, 63)   
    DRY( 47, 64)   DRY( 47, 65)   DRY( 47, 66)   DRY( 47, 67)   DRY( 47, 68)   
    DRY( 47, 69)   DRY( 47, 70)   DRY( 47, 71)   DRY( 47, 72)   DRY( 47, 73)   
    DRY( 47, 74)   DRY( 47, 75)   DRY( 47, 76)   DRY( 47, 77)   DRY( 47, 78)   
    DRY( 47, 79)   DRY( 47, 80)   DRY( 47, 81)   DRY( 47, 82)   DRY( 47, 83)   
    DRY( 47, 84)   DRY( 47, 85)   DRY( 47, 86)   DRY( 47, 87)   DRY( 47, 88)   
    DRY( 47, 89)   DRY( 47, 90)   DRY( 47, 91)   DRY( 47, 92)   DRY( 47, 93)   
    DRY( 47, 94)   DRY( 47, 95)   DRY( 47, 96)   DRY( 47, 97)   DRY( 47, 98)   
    DRY( 47, 99)   DRY( 47,100)   DRY( 47,101)   DRY( 47,102)   DRY( 47,103)   
    DRY( 47,104)   DRY( 47,105)   DRY( 47,106)   DRY( 47,107)   DRY( 47,108)   
    DRY( 47,109)   DRY( 47,110)   DRY( 47,111)   DRY( 47,112)   DRY( 47,113)   
    DRY( 47,114)   DRY( 47,115)   DRY( 47,116)   DRY( 47,117)   DRY( 47,118)   
    DRY( 47,119)   DRY( 47,120)   DRY( 47,121)   DRY( 47,122)   DRY( 47,123)   
    DRY( 47,124)   DRY( 47,125)   DRY( 47,126)   DRY( 47,127)   DRY( 47,128)   
    DRY( 47,129)   DRY( 47,130)   DRY( 47,131)   DRY( 47,132)   DRY( 47,133)   
    DRY( 47,134)   DRY( 47,135)   DRY( 47,136)   DRY( 47,137)   DRY( 47,138)   
    DRY( 47,139)   DRY( 47,140)   DRY( 47,141)   DRY( 47,142)   DRY( 47,143)   
    DRY( 47,144)   DRY( 47,145)   DRY( 47,146)   DRY( 47,147)   DRY( 47,148)   
    DRY( 47,149)   DRY( 47,150)   DRY( 47,151)   DRY( 47,152)   DRY( 47,153)   
    DRY( 47,154)   DRY( 47,155)   DRY( 47,156)   DRY( 47,157)   DRY( 47,158)   
    DRY( 47,159)   DRY( 47,160)   DRY( 47,161)   DRY( 47,162)   DRY( 47,163)   
    DRY( 47,164)   DRY( 47,165)   DRY( 47,166)   DRY( 47,167)   DRY( 47,168)   
    DRY( 47,169)   DRY( 47,170)   DRY( 47,171)   DRY( 47,172)   DRY( 47,173)   
    DRY( 47,174)   DRY( 47,175)   DRY( 47,176)   DRY( 47,177)   DRY( 47,178)   
    DRY( 47,179)   DRY( 47,180)   DRY( 47,181)   DRY( 47,182)   DRY( 47,183)   
    DRY( 47,184)   DRY( 47,185)   DRY( 47,186)   DRY( 47,187)   DRY( 47,188)   
    DRY( 47,189)   DRY( 47,190)   DRY( 47,191)   DRY( 47,192)   DRY( 47,193)   
    DRY( 47,194)   DRY( 47,195)   DRY( 47,196)   DRY( 47,197)   DRY( 47,198)   
    DRY( 47,199)   DRY( 47,200)   DRY( 47,201)   DRY( 47,202)   DRY( 47,203)   
    DRY( 47,204)   DRY( 47,205)   DRY( 47,206)   DRY( 47,207)   DRY( 47,208)   
    DRY( 47,209)   DRY( 47,210)   DRY( 47,211)   DRY( 47,212)   DRY( 47,213)   
    DRY( 47,214)   DRY( 47,215)   DRY( 47,216)   DRY( 47,217)   DRY( 47,218)   
    DRY( 47,219)   DRY( 47,220)   DRY( 48, 34)   DRY( 48, 35)   DRY( 48, 36)   
    DRY( 48, 37)   DRY( 48, 38)   DRY( 48, 39)   DRY( 48, 40)   DRY( 48, 41)   
    DRY( 48, 42)   DRY( 48, 43)   DRY( 48, 44)   DRY( 48, 45)   DRY( 48, 67)   
    DRY( 48, 68)   DRY( 48, 69)   DRY( 48, 70)   DRY( 48, 71)   DRY( 48, 72)   
    DRY( 48, 73)   DRY( 48, 74)   DRY( 48, 75)   DRY( 48, 76)   DRY( 48, 77)   
    DRY( 48, 78)   DRY( 48, 79)   DRY( 48, 80)   DRY( 48, 81)   DRY( 48, 82)   
    DRY( 48, 83)   DRY( 48, 84)   DRY( 48, 85)   DRY( 48, 86)   DRY( 48, 87)   
    DRY( 48, 88)   DRY( 48, 89)   DRY( 48, 90)   DRY( 48, 91)   DRY( 48, 92)   
    DRY( 48, 93)   DRY( 48, 94)   DRY( 48, 95)   DRY( 48, 96)   DRY( 48, 97)   
    DRY( 48, 98)   DRY( 48, 99)   DRY( 48,100)   DRY( 48,101)   DRY( 48,102)   
    DRY( 48,103)   DRY( 48,104)   DRY( 48,105)   DRY( 48,106)   DRY( 48,107)   
    DRY( 48,108)   DRY( 48,109)   DRY( 48,110)   DRY( 48,111)   DRY( 48,112)   
    DRY( 48,113)   DRY( 48,114)   DRY( 48,115)   DRY( 48,116)   DRY( 48,117)   
    DRY( 48,118)   DRY( 48,119)   DRY( 48,120)   DRY( 48,121)   DRY( 48,122)   
    DRY( 48,123)   DRY( 48,124)   DRY( 48,125)   DRY( 48,126)   DRY( 48,127)   
    DRY( 48,128)   DRY( 48,129)   DRY( 48,130)   DRY( 48,131)   DRY( 48,132)   
    DRY( 48,133)   DRY( 48,134)   DRY( 48,135)   DRY( 48,136)   DRY( 48,137)   
    DRY( 48,138)   DRY( 48,139)   DRY( 48,140)   DRY( 48,141)   DRY( 48,142)   
    DRY( 48,143)   DRY( 48,144)   DRY( 48,145)   DRY( 48,146)   DRY( 48,147)   
    DRY( 48,148)   DRY( 48,149)   DRY( 48,150)   DRY( 48,151)   DRY( 48,152)   
    DRY( 48,153)   DRY( 48,154)   DRY( 48,155)   DRY( 48,156)   DRY( 48,157)   
    DRY( 48,158)   DRY( 48,159)   DRY( 48,160)   DRY( 48,161)   DRY( 48,162)   
    DRY( 48,163)   DRY( 48,164)   DRY( 48,165)   DRY( 48,166)   DRY( 48,167)   
    DRY( 48,168)   DRY( 48,169)   DRY( 48,170)   DRY( 48,171)   DRY( 48,172)   
    DRY( 48,173)   DRY( 48,174)   DRY( 48,175)   DRY( 48,176)   DRY( 48,177)   
    DRY( 48,178)   DRY( 48,179)   DRY( 48,180)   DRY( 48,181)   DRY( 48,182)   
    DRY( 48,183)   DRY( 48,184)   DRY( 48,185)   DRY( 48,186)   DRY( 48,187)   
    DRY( 48,188)   DRY( 48,189)   DRY( 48,190)   DRY( 48,191)   DRY( 48,192)   
    DRY( 48,193)   DRY( 48,194)   DRY( 48,195)   DRY( 48,196)   DRY( 48,197)   
    DRY( 48,198)   DRY( 48,199)   DRY( 48,200)   DRY( 48,201)   DRY( 48,202)   
    DRY( 48,203)   DRY( 48,204)   DRY( 48,205)   DRY( 48,206)   DRY( 48,207)   
    DRY( 48,208)   DRY( 48,209)   DRY( 48,210)   DRY( 48,211)   DRY( 48,212)   
    DRY( 48,213)   DRY( 48,214)   DRY( 48,215)   DRY( 48,216)   DRY( 48,217)   
    DRY( 48,218)   DRY( 48,219)   DRY( 48,220)   DRY( 49, 76)   DRY( 49, 77)   
    DRY( 49, 78)   DRY( 49, 79)   DRY( 49, 80)   DRY( 49, 88)   DRY( 49, 89)   
    DRY( 49, 90)   DRY( 49, 91)   DRY( 49, 92)   DRY( 49, 93)   DRY( 49, 94)   
    DRY( 49, 95)   DRY( 49, 96)   DRY( 49, 97)   DRY( 49, 98)   DRY( 49, 99)   
    DRY( 49,100)   DRY( 49,101)   DRY( 49,128)   DRY( 49,129)   DRY( 49,130)   
    DRY( 49,131)   DRY( 49,132)   DRY( 49,133)   DRY( 49,134)   DRY( 49,135)   
    DRY( 49,136)   DRY( 49,137)   DRY( 49,138)   DRY( 49,139)   DRY( 49,140)   
    DRY( 49,141)   DRY( 49,142)   DRY( 49,143)   DRY( 49,144)   DRY( 49,145)   
    DRY( 49,146)   DRY( 49,147)   DRY( 49,148)   DRY( 49,149)   DRY( 49,150)   
    DRY( 49,151)   DRY( 49,152)   DRY( 49,153)   DRY( 49,154)   DRY( 49,155)   
    DRY( 49,156)   DRY( 49,157)   DRY( 49,158)   DRY( 49,159)   DRY( 49,160)   
    DRY( 49,161)   DRY( 49,162)   DRY( 49,163)   DRY( 49,164)   DRY( 49,165)   
    DRY( 49,166)   DRY( 49,167)   DRY( 49,168)   DRY( 49,169)   DRY( 49,170)   
    DRY( 49,171)   DRY( 49,172)   DRY( 49,173)   DRY( 49,174)   DRY( 49,179)   
    DRY( 49,180)   DRY( 49,181)   DRY( 49,182)   DRY( 49,183)   DRY( 49,184)   
    DRY( 49,185)   DRY( 49,186)   DRY( 49,187)   DRY( 49,188)   DRY( 49,189)   
    DRY( 49,190)   DRY( 49,195)   DRY( 49,196)   DRY( 49,197)   DRY( 49,198)   
    DRY( 49,199)   DRY( 49,200)   DRY( 49,201)   DRY( 49,202)   DRY( 49,203)   
    DRY( 49,204)   DRY( 49,205)   DRY( 49,206)   DRY( 49,207)   DRY( 49,208)   
    DRY( 49,209)   DRY( 49,210)   DRY( 49,211)   DRY( 49,212)   DRY( 49,213)   
    DRY( 49,214)   DRY( 49,215)   DRY( 49,216)   DRY( 49,217)   DRY( 49,218)   
    DRY( 49,219)   DRY( 49,220)   DRY( 50,152)   DRY( 50,153)   DRY( 50,154)   
    DRY( 50,155)   DRY( 50,156)   DRY( 50,157)   DRY( 50,199)   DRY( 50,200)   
    DRY( 50,201)   DRY( 50,202)   DRY( 50,203)   DRY( 50,204)   DRY( 50,205)   
    DRY( 50,213)   DRY( 50,214)   DRY( 50,215)   DRY( 50,216)   DRY( 50,217)   
    DRY( 50,218)   DRY( 50,219)   DRY( 50,220)   DRY( 51,215)   DRY( 51,216)   
    DRY( 51,217)   DRY( 51,218)   DRY( 51,219)   DRY( 51,220)   DRY( 52,217)   
    DRY( 52,218)   DRY( 52,219)   DRY( 52,220)   

 CELL CONVERSIONS FOR ITER.=  3  LAYER= 17  STEP=  1  PERIOD=   1   (ROW,COL)
    DRY( 37,  1)   DRY( 37,  2)   DRY( 37,  3)   DRY( 38,  1)   DRY( 38,  2)   
    DRY( 38,  3)   DRY( 38,  4)   DRY( 38,  5)   DRY( 38,  6)   DRY( 38,  7)   
    DRY( 38,  8)   DRY( 38,  9)   DRY( 38, 10)   DRY( 38, 11)   DRY( 38, 12)   
    DRY( 38, 13)   DRY( 38, 14)   DRY( 38, 15)   DRY( 38, 16)   DRY( 38, 17)   
    DRY( 38, 18)   DRY( 38, 19)   DRY( 38, 20)   DRY( 38, 21)   DRY( 38, 22)   
    DRY( 38, 23)   DRY( 38, 24)   DRY( 38, 25)   DRY( 38, 26)   DRY( 38, 27)   
    DRY( 38, 28)   DRY( 38, 29)   DRY( 38, 30)   DRY( 38, 31)   DRY( 38, 32)   
    DRY( 38, 33)   DRY( 38, 34)   DRY( 38, 35)   DRY( 38, 36)   DRY( 38, 37)   
    DRY( 38, 38)   DRY( 38, 39)   DRY( 38, 40)   DRY( 38, 41)   DRY( 38, 42)   
    DRY( 38, 43)   DRY( 38, 44)   DRY( 38, 45)   DRY( 38, 46)   DRY( 38, 47)   
    DRY( 38, 48)   DRY( 38, 49)   DRY( 38, 50)   DRY( 38, 51)   DRY( 38, 52)   
    DRY( 38, 53)   DRY( 38, 54)   DRY( 38, 55)   DRY( 38, 56)   DRY( 38, 57)   
    DRY( 38, 58)   DRY( 38, 59)   DRY( 38, 60)   DRY( 38, 61)   DRY( 38, 62)   
    DRY( 38, 63)   DRY( 38, 64)   DRY( 38, 65)   DRY( 38, 66)   DRY( 38, 67)   
    DRY( 38, 68)   DRY( 38, 69)   DRY( 38, 70)   DRY( 38, 71)   DRY( 38, 72)   
    DRY( 38, 73)   DRY( 38, 74)   DRY( 38, 75)   DRY( 38, 76)   DRY( 38, 77)   
    DRY( 38, 78)   DRY( 38, 79)   DRY( 38, 80)   DRY( 38, 81)   DRY( 38, 82)   
    DRY( 38, 83)   DRY( 38, 84)   DRY( 38, 85)   DRY( 38, 86)   DRY( 38, 87)   
    DRY( 38, 88)   DRY( 38, 89)   DRY( 38, 90)   DRY( 38, 91)   DRY( 38, 92)   
    DRY( 39,  1)   DRY( 39,  2)   DRY( 39,  3)   DRY( 39,  4)   DRY( 39,  5)   
    DRY( 39,  6)   DRY( 39,  7)   DRY( 39,  8)   DRY( 39,  9)   DRY( 39, 10)   
    DRY( 39, 11)   DRY( 39, 12)   DRY( 39, 13)   DRY( 39, 14)   DRY( 39, 15)   
    DRY( 39, 16)   DRY( 39, 17)   DRY( 39, 18)   DRY( 39, 19)   DRY( 39, 20)   
    DRY( 39, 21)   DRY( 39, 22)   DRY( 39, 23)   DRY( 39, 24)   DRY( 39, 25)   
    DRY( 39, 26)   DRY( 39, 27)   DRY( 39, 28)   DRY( 39, 29)   DRY( 39, 30)   
    DRY( 39, 31)   DRY( 39, 32)   DRY( 39, 33)   DRY( 39, 34)   DRY( 39, 35)   
    DRY( 39, 36)   DRY( 39, 37)   DRY( 39, 38)   DRY( 39, 39)   DRY( 39, 40)   
    DRY( 39, 41)   DRY( 39, 42)   DRY( 39, 43)   DRY( 39, 44)   DRY( 39, 45)   
    DRY( 39, 46)   DRY( 39, 47)   DRY( 39, 48)   DRY( 39, 49)   DRY( 39, 50)   
    DRY( 39, 51)   DRY( 39, 52)   DRY( 39, 53)   DRY( 39, 54)   DRY( 39, 55)   
    DRY( 39, 56)   DRY( 39, 57)   DRY( 39, 58)   DRY( 39, 59)   DRY( 39, 60)   
    DRY( 39, 61)   DRY( 39, 62)   DRY( 39, 63)   DRY( 39, 64)   DRY( 39, 65)   
    DRY( 39, 66)   DRY( 39, 67)   DRY( 39, 68)   DRY( 39, 69)   DRY( 39, 70)   
    DRY( 39, 71)   DRY( 39, 72)   DRY( 39, 73)   DRY( 39, 74)   DRY( 39, 75)   
    DRY( 39, 76)   DRY( 39, 77)   DRY( 39, 78)   DRY( 39, 79)   DRY( 39, 80)   
    DRY( 39, 81)   DRY( 39, 82)   DRY( 39, 83)   DRY( 39, 84)   DRY( 39, 85)   
    DRY( 39, 86)   DRY( 39, 87)   DRY( 39, 88)   DRY( 39, 89)   DRY( 39, 90)   
    DRY( 39, 91)   DRY( 39, 92)   DRY( 39, 93)   DRY( 39, 94)   DRY( 39, 95)   
    DRY( 39, 96)   DRY( 39, 97)   DRY( 39, 98)   DRY( 39, 99)   DRY( 39,100)   
    DRY( 39,101)   DRY( 39,102)   DRY( 39,103)   DRY( 39,104)   DRY( 39,105)   
    DRY( 39,106)   DRY( 39,107)   DRY( 39,108)   DRY( 39,109)   DRY( 39,110)   
    DRY( 39,111)   DRY( 39,112)   DRY( 39,113)   DRY( 39,114)   DRY( 39,115)   
    DRY( 39,116)   DRY( 39,117)   DRY( 39,118)   DRY( 39,119)   DRY( 39,120)   
    DRY( 39,121)   DRY( 39,122)   DRY( 39,123)   DRY( 39,124)   DRY( 39,125)   
    DRY( 39,126)   DRY( 39,127)   DRY( 39,128)   DRY( 39,129)   DRY( 39,130)   
    DRY( 39,131)   DRY( 39,132)   DRY( 39,133)   DRY( 39,134)   DRY( 39,135)   
    DRY( 39,136)   DRY( 39,137)   DRY( 39,138)   DRY( 39,139)   DRY( 39,140)   
    DRY( 39,141)   DRY( 39,142)   DRY( 39,143)   DRY( 39,144)   DRY( 39,145)   
    DRY( 39,146)   DRY( 39,147)   DRY( 39,148)   DRY( 39,149)   DRY( 39,150)   
    DRY( 39,151)   DRY( 39,152)   DRY( 39,153)   DRY( 39,154)   DRY( 39,155)   
    DRY( 39,156)   DRY( 39,157)   DRY( 39,158)   DRY( 39,159)   DRY( 39,160)   
    DRY( 39,161)   DRY( 39,162)   DRY( 39,163)   DRY( 39,164)   DRY( 39,165)   
    DRY( 39,166)   DRY( 39,167)   DRY( 39,168)   DRY( 39,169)   DRY( 39,170)   
    DRY( 39,171)   DRY( 39,172)   DRY( 39,173)   DRY( 39,174)   DRY( 39,175)   
    DRY( 39,176)   DRY( 39,177)   DRY( 39,178)   DRY( 39,179)   DRY( 39,180)   
    DRY( 39,181)   DRY( 39,182)   DRY( 39,183)   DRY( 39,184)   DRY( 39,185)   
    DRY( 39,186)   DRY( 39,187)   DRY( 39,188)   DRY( 39,189)   DRY( 39,190)   
    DRY( 39,191)   DRY( 39,192)   DRY( 39,193)   DRY( 39,194)   DRY( 39,195)   
    DRY( 39,196)   DRY( 39,197)   DRY( 39,198)   DRY( 39,199)   DRY( 39,200)   
    DRY( 39,201)   DRY( 39,202)   DRY( 39,203)   DRY( 39,204)   DRY( 39,205)   
    DRY( 39,206)   DRY( 39,207)   DRY( 39,208)   DRY( 39,209)   DRY( 39,210)   
    DRY( 39,211)   DRY( 39,212)   DRY( 39,213)   DRY( 40,  1)   DRY( 40,  2)   
    DRY( 40,  3)   DRY( 40,  4)   DRY( 40,  5)   DRY( 40,  6)   DRY( 40,  7)   
    DRY( 40,  8)   DRY( 40,  9)   DRY( 40, 10)   DRY( 40, 11)   DRY( 40, 12)   
    DRY( 40, 13)   DRY( 40, 14)   DRY( 40, 15)   DRY( 40, 16)   DRY( 40, 17)   
    DRY( 40, 18)   DRY( 40, 19)   DRY( 40, 20)   DRY( 40, 21)   DRY( 40, 22)   
    DRY( 40, 23)   DRY( 40, 24)   DRY( 40, 25)   DRY( 40, 26)   DRY( 40, 27)   
    DRY( 40, 28)   DRY( 40, 29)   DRY( 40, 30)   DRY( 40, 31)   DRY( 40, 32)   
    DRY( 40, 33)   DRY( 40, 34)   DRY( 40, 35)   DRY( 40, 36)   DRY( 40, 37)   
    DRY( 40, 38)   DRY( 40, 39)   DRY( 40, 40)   DRY( 40, 41)   DRY( 40, 42)   
    DRY( 40, 43)   DRY( 40, 44)   DRY( 40, 45)   DRY( 40, 46)   DRY( 40, 47)   
    DRY( 40, 48)   DRY( 40, 49)   DRY( 40, 50)   DRY( 40, 51)   DRY( 40, 52)   
    DRY( 40, 53)   DRY( 40, 54)   DRY( 40, 55)   DRY( 40, 56)   DRY( 40, 57)   
    DRY( 40, 58)   DRY( 40, 59)   DRY( 40, 60)   DRY( 40, 61)   DRY( 40, 62)   
    DRY( 40, 63)   DRY( 40, 64)   DRY( 40, 65)   DRY( 40, 66)   DRY( 40, 67)   
    DRY( 40, 68)   DRY( 40, 69)   DRY( 40, 70)   DRY( 40, 71)   DRY( 40, 72)   
    DRY( 40, 73)   DRY( 40, 74)   DRY( 40, 75)   DRY( 40, 76)   DRY( 40, 77)   
    DRY( 40, 78)   DRY( 40, 79)   DRY( 40, 80)   DRY( 40, 81)   DRY( 40, 82)   
    DRY( 40, 83)   DRY( 40, 84)   DRY( 40, 85)   DRY( 40, 86)   DRY( 40, 87)   
    DRY( 40, 88)   DRY( 40, 89)   DRY( 40, 90)   DRY( 40, 91)   DRY( 40, 92)   
    DRY( 40, 93)   DRY( 40, 94)   DRY( 40, 95)   DRY( 40, 96)   DRY( 40, 97)   
    DRY( 40, 98)   DRY( 40, 99)   DRY( 40,100)   DRY( 40,101)   DRY( 40,102)   
    DRY( 40,103)   DRY( 40,104)   DRY( 40,105)   DRY( 40,106)   DRY( 40,107)   
    DRY( 40,108)   DRY( 40,109)   DRY( 40,110)   DRY( 40,111)   DRY( 40,112)   
    DRY( 40,113)   DRY( 40,114)   DRY( 40,115)   DRY( 40,116)   DRY( 40,117)   
    DRY( 40,118)   DRY( 40,119)   DRY( 40,120)   DRY( 40,121)   DRY( 40,122)   
    DRY( 40,123)   DRY( 40,124)   DRY( 40,125)   DRY( 40,126)   DRY( 40,127)   
    DRY( 40,128)   DRY( 40,129)   DRY( 40,130)   DRY( 40,131)   DRY( 40,132)   
    DRY( 40,133)   DRY( 40,134)   DRY( 40,135)   DRY( 40,136)   DRY( 40,137)   
    DRY( 40,138)   DRY( 40,139)   DRY( 40,140)   DRY( 40,141)   DRY( 40,142)   
    DRY( 40,143)   DRY( 40,144)   DRY( 40,145)   DRY( 40,146)   DRY( 40,147)   
    DRY( 40,148)   DRY( 40,149)   DRY( 40,150)   DRY( 40,151)   DRY( 40,152)   
    DRY( 40,153)   DRY( 40,154)   DRY( 40,155)   DRY( 40,156)   DRY( 40,157)   
    DRY( 40,158)   DRY( 40,159)   DRY( 40,160)   DRY( 40,161)   DRY( 40,162)   
    DRY( 40,163)   DRY( 40,164)   DRY( 40,165)   DRY( 40,166)   DRY( 40,167)   
    DRY( 40,168)   DRY( 40,169)   DRY( 40,170)   DRY( 40,171)   DRY( 40,172)   
    DRY( 40,173)   DRY( 40,174)   DRY( 40,175)   DRY( 40,176)   DRY( 40,177)   
    DRY( 40,178)   DRY( 40,179)   DRY( 40,180)   DRY( 40,181)   DRY( 40,182)   
    DRY( 40,183)   DRY( 40,184)   DRY( 40,185)   DRY( 40,186)   DRY( 40,187)   
    DRY( 40,188)   DRY( 40,189)   DRY( 40,190)   DRY( 40,191)   DRY( 40,192)   
    DRY( 40,193)   DRY( 40,194)   DRY( 40,195)   DRY( 40,196)   DRY( 40,197)   
    DRY( 40,198)   DRY( 40,199)   DRY( 40,200)   DRY( 40,201)   DRY( 40,202)   
    DRY( 40,203)   DRY( 40,204)   DRY( 40,205)   DRY( 40,206)   DRY( 40,207)   
    DRY( 40,208)   DRY( 40,209)   DRY( 40,210)   DRY( 40,211)   DRY( 40,212)   
    DRY( 40,213)   DRY( 40,214)   DRY( 40,215)   DRY( 40,216)   DRY( 40,217)   
    DRY( 40,218)   DRY( 40,219)   DRY( 40,220)   DRY( 41,  1)   DRY( 41,  2)   
    DRY( 41,  3)   DRY( 41,  4)   DRY( 41,  5)   DRY( 41,  6)   DRY( 41,  7)   
    DRY( 41,  8)   DRY( 41,  9)   DRY( 41, 10)   DRY( 41, 11)   DRY( 41, 12)   
    DRY( 41, 13)   DRY( 41, 14)   DRY( 41, 15)   DRY( 41, 16)   DRY( 41, 17)   
    DRY( 41, 18)   DRY( 41, 19)   DRY( 41, 20)   DRY( 41, 21)   DRY( 41, 22)   
    DRY( 41, 23)   DRY( 41, 24)   DRY( 41, 25)   DRY( 41, 26)   DRY( 41, 27)   
    DRY( 41, 28)   DRY( 41, 29)   DRY( 41, 30)   DRY( 41, 31)   DRY( 41, 32)   
    DRY( 41, 33)   DRY( 41, 34)   DRY( 41, 35)   DRY( 41, 36)   DRY( 41, 37)   
    DRY( 41, 38)   DRY( 41, 39)   DRY( 41, 40)   DRY( 41, 41)   DRY( 41, 42)   
    DRY( 41, 43)   DRY( 41, 44)   DRY( 41, 45)   DRY( 41, 46)   DRY( 41, 47)   
    DRY( 41, 48)   DRY( 41, 49)   DRY( 41, 50)   DRY( 41, 51)   DRY( 41, 52)   
    DRY( 41, 53)   DRY( 41, 54)   DRY( 41, 55)   DRY( 41, 56)   DRY( 41, 57)   
    DRY( 41, 58)   DRY( 41, 59)   DRY( 41, 60)   DRY( 41, 61)   DRY( 41, 62)   
    DRY( 41, 63)   DRY( 41, 64)   DRY( 41, 65)   DRY( 41, 66)   DRY( 41, 67)   
    DRY( 41, 68)   DRY( 41, 69)   DRY( 41, 70)   DRY( 41, 71)   DRY( 41, 72)   
    DRY( 41, 73)   DRY( 41, 74)   DRY( 41, 75)   DRY( 41, 76)   DRY( 41, 77)   
    DRY( 41, 78)   DRY( 41, 79)   DRY( 41, 80)   DRY( 41, 81)   DRY( 41, 82)   
    DRY( 41, 83)   DRY( 41, 84)   DRY( 41, 85)   DRY( 41, 86)   DRY( 41, 87)   
    DRY( 41, 88)   DRY( 41, 89)   DRY( 41, 90)   DRY( 41, 91)   DRY( 41, 92)   
    DRY( 41, 93)   DRY( 41, 94)   DRY( 41, 95)   DRY( 41, 96)   DRY( 41, 97)   
    DRY( 41, 98)   DRY( 41, 99)   DRY( 41,100)   DRY( 41,101)   DRY( 41,102)   
    DRY( 41,103)   DRY( 41,104)   DRY( 41,105)   DRY( 41,106)   DRY( 41,107)   
    DRY( 41,108)   DRY( 41,109)   DRY( 41,110)   DRY( 41,111)   DRY( 41,112)   
    DRY( 41,113)   DRY( 41,114)   DRY( 41,115)   DRY( 41,116)   DRY( 41,117)   
    DRY( 41,118)   DRY( 41,119)   DRY( 41,120)   DRY( 41,121)   DRY( 41,122)   
    DRY( 41,123)   DRY( 41,124)   DRY( 41,125)   DRY( 41,126)   DRY( 41,127)   
    DRY( 41,128)   DRY( 41,129)   DRY( 41,130)   DRY( 41,131)   DRY( 41,132)   
    DRY( 41,133)   DRY( 41,134)   DRY( 41,135)   DRY( 41,136)   DRY( 41,137)   
    DRY( 41,138)   DRY( 41,139)   DRY( 41,140)   DRY( 41,141)   DRY( 41,142)   
    DRY( 41,143)   DRY( 41,144)   DRY( 41,145)   DRY( 41,146)   DRY( 41,147)   
    DRY( 41,148)   DRY( 41,149)   DRY( 41,150)   DRY( 41,151)   DRY( 41,152)   
    DRY( 41,153)   DRY( 41,154)   DRY( 41,155)   DRY( 41,156)   DRY( 41,157)   
    DRY( 41,158)   DRY( 41,159)   DRY( 41,160)   DRY( 41,161)   DRY( 41,162)   
    DRY( 41,163)   DRY( 41,164)   DRY( 41,165)   DRY( 41,166)   DRY( 41,167)   
    DRY( 41,168)   DRY( 41,169)   DRY( 41,170)   DRY( 41,171)   DRY( 41,172)   
    DRY( 41,173)   DRY( 41,174)   DRY( 41,175)   DRY( 41,176)   DRY( 41,177)   
    DRY( 41,178)   DRY( 41,179)   DRY( 41,180)   DRY( 41,181)   DRY( 41,182)   
    DRY( 41,183)   DRY( 41,184)   DRY( 41,185)   DRY( 41,186)   DRY( 41,187)   
    DRY( 41,188)   DRY( 41,189)   DRY( 41,190)   DRY( 41,191)   DRY( 41,192)   
    DRY( 41,193)   DRY( 41,194)   DRY( 41,195)   DRY( 41,196)   DRY( 41,197)   
    DRY( 41,198)   DRY( 41,199)   DRY( 41,200)   DRY( 41,201)   DRY( 41,202)   
    DRY( 41,203)   DRY( 41,204)   DRY( 41,205)   DRY( 41,206)   DRY( 41,207)   
    DRY( 41,208)   DRY( 41,209)   DRY( 41,210)   DRY( 41,211)   DRY( 41,212)   
    DRY( 41,213)   DRY( 41,214)   DRY( 41,215)   DRY( 41,216)   DRY( 41,217)   
    DRY( 41,218)   DRY( 41,219)   DRY( 41,220)   DRY( 42,  1)   DRY( 42,  2)   
    DRY( 42,  3)   DRY( 42,  4)   DRY( 42,  5)   DRY( 42,  6)   DRY( 42,  7)   
    DRY( 42,  8)   DRY( 42,  9)   DRY( 42, 10)   DRY( 42, 11)   DRY( 42, 12)   
    DRY( 42, 13)   DRY( 42, 14)   DRY( 42, 15)   DRY( 42, 16)   DRY( 42, 17)   
    DRY( 42, 18)   DRY( 42, 19)   DRY( 42, 20)   DRY( 42, 21)   DRY( 42, 22)   
    DRY( 42, 23)   DRY( 42, 24)   DRY( 42, 25)   DRY( 42, 26)   DRY( 42, 27)   
    DRY( 42, 28)   DRY( 42, 29)   DRY( 42, 30)   DRY( 42, 31)   DRY( 42, 32)   
    DRY( 42, 33)   DRY( 42, 34)   DRY( 42, 35)   DRY( 42, 36)   DRY( 42, 37)   
    DRY( 42, 38)   DRY( 42, 39)   DRY( 42, 40)   DRY( 42, 41)   DRY( 42, 42)   
    DRY( 42, 43)   DRY( 42, 44)   DRY( 42, 45)   DRY( 42, 46)   DRY( 42, 47)   
    DRY( 42, 48)   DRY( 42, 49)   DRY( 42, 50)   DRY( 42, 51)   DRY( 42, 52)   
    DRY( 42, 53)   DRY( 42, 54)   DRY( 42, 55)   DRY( 42, 56)   DRY( 42, 57)   
    DRY( 42, 58)   DRY( 42, 59)   DRY( 42, 60)   DRY( 42, 61)   DRY( 42, 62)   
    DRY( 42, 63)   DRY( 42, 64)   DRY( 42, 65)   DRY( 42, 66)   DRY( 42, 67)   
    DRY( 42, 68)   DRY( 42, 69)   DRY( 42, 70)   DRY( 42, 71)   DRY( 42, 72)   
    DRY( 42, 73)   DRY( 42, 74)   DRY( 42, 75)   DRY( 42, 76)   DRY( 42, 77)   
    DRY( 42, 78)   DRY( 42, 79)   DRY( 42, 80)   DRY( 42, 81)   DRY( 42, 82)   
    DRY( 42, 83)   DRY( 42, 84)   DRY( 42, 85)   DRY( 42, 86)   DRY( 42, 87)   
    DRY( 42, 88)   DRY( 42, 89)   DRY( 42, 90)   DRY( 42, 91)   DRY( 42, 92)   
    DRY( 42, 93)   DRY( 42, 94)   DRY( 42, 95)   DRY( 42, 96)   DRY( 42, 97)   
    DRY( 42, 98)   DRY( 42, 99)   DRY( 42,100)   DRY( 42,101)   DRY( 42,102)   
    DRY( 42,103)   DRY( 42,104)   DRY( 42,105)   DRY( 42,106)   DRY( 42,107)   
    DRY( 42,108)   DRY( 42,109)   DRY( 42,110)   DRY( 42,111)   DRY( 42,112)   
    DRY( 42,113)   DRY( 42,114)   DRY( 42,115)   DRY( 42,116)   DRY( 42,117)   
    DRY( 42,118)   DRY( 42,119)   DRY( 42,120)   DRY( 42,121)   DRY( 42,122)   
    DRY( 42,123)   DRY( 42,124)   DRY( 42,125)   DRY( 42,126)   DRY( 42,127)   
    DRY( 42,128)   DRY( 42,129)   DRY( 42,130)   DRY( 42,131)   DRY( 42,132)   
    DRY( 42,133)   DRY( 42,134)   DRY( 42,135)   DRY( 42,136)   DRY( 42,137)   
    DRY( 42,138)   DRY( 42,139)   DRY( 42,140)   DRY( 42,141)   DRY( 42,142)   
    DRY( 42,143)   DRY( 42,144)   DRY( 42,145)   DRY( 42,146)   DRY( 42,147)   
    DRY( 42,148)   DRY( 42,149)   DRY( 42,150)   DRY( 42,151)   DRY( 42,152)   
    DRY( 42,153)   DRY( 42,154)   DRY( 42,155)   DRY( 42,156)   DRY( 42,157)   
    DRY( 42,158)   DRY( 42,159)   DRY( 42,160)   DRY( 42,161)   DRY( 42,162)   
    DRY( 42,163)   DRY( 42,164)   DRY( 42,165)   DRY( 42,166)   DRY( 42,167)   
    DRY( 42,168)   DRY( 42,169)   DRY( 42,170)   DRY( 42,171)   DRY( 42,172)   
    DRY( 42,173)   DRY( 42,174)   DRY( 42,175)   DRY( 42,176)   DRY( 42,177)   
    DRY( 42,178)   DRY( 42,179)   DRY( 42,180)   DRY( 42,181)   DRY( 42,182)   
    DRY( 42,183)   DRY( 42,184)   DRY( 42,185)   DRY( 42,186)   DRY( 42,187)   
    DRY( 42,188)   DRY( 42,189)   DRY( 42,190)   DRY( 42,191)   DRY( 42,192)   
    DRY( 42,193)   DRY( 42,194)   DRY( 42,195)   DRY( 42,196)   DRY( 42,197)   
    DRY( 42,198)   DRY( 42,199)   DRY( 42,200)   DRY( 42,201)   DRY( 42,202)   
    DRY( 42,203)   DRY( 42,204)   DRY( 42,205)   DRY( 42,206)   DRY( 42,207)   
    DRY( 42,208)   DRY( 42,209)   DRY( 42,210)   DRY( 42,211)   DRY( 42,212)   
    DRY( 42,213)   DRY( 42,214)   DRY( 42,215)   DRY( 42,216)   DRY( 42,217)   
    DRY( 42,218)   DRY( 42,219)   DRY( 42,220)   DRY( 43,  1)   DRY( 43,  2)   
    DRY( 43,  3)   DRY( 43,  4)   DRY( 43,  5)   DRY( 43,  6)   DRY( 43,  7)   
    DRY( 43,  8)   DRY( 43,  9)   DRY( 43, 10)   DRY( 43, 11)   DRY( 43, 12)   
    DRY( 43, 13)   DRY( 43, 14)   DRY( 43, 15)   DRY( 43, 16)   DRY( 43, 17)   
    DRY( 43, 18)   DRY( 43, 19)   DRY( 43, 20)   DRY( 43, 21)   DRY( 43, 22)   
    DRY( 43, 23)   DRY( 43, 24)   DRY( 43, 25)   DRY( 43, 26)   DRY( 43, 27)   
    DRY( 43, 28)   DRY( 43, 29)   DRY( 43, 30)   DRY( 43, 31)   DRY( 43, 32)   
    DRY( 43, 33)   DRY( 43, 34)   DRY( 43, 35)   DRY( 43, 36)   DRY( 43, 37)   
    DRY( 43, 38)   DRY( 43, 39)   DRY( 43, 40)   DRY( 43, 41)   DRY( 43, 42)   
    DRY( 43, 43)   DRY( 43, 44)   DRY( 43, 45)   DRY( 43, 46)   DRY( 43, 47)   
    DRY( 43, 48)   DRY( 43, 49)   DRY( 43, 50)   DRY( 43, 51)   DRY( 43, 52)   
    DRY( 43, 53)   DRY( 43, 54)   DRY( 43, 55)   DRY( 43, 56)   DRY( 43, 57)   
    DRY( 43, 58)   DRY( 43, 59)   DRY( 43, 60)   DRY( 43, 61)   DRY( 43, 62)   
    DRY( 43, 63)   DRY( 43, 64)   DRY( 43, 65)   DRY( 43, 66)   DRY( 43, 67)   
    DRY( 43, 68)   DRY( 43, 69)   DRY( 43, 70)   DRY( 43, 71)   DRY( 43, 72)   
    DRY( 43, 73)   DRY( 43, 74)   DRY( 43, 75)   DRY( 43, 76)   DRY( 43, 77)   
    DRY( 43, 78)   DRY( 43, 79)   DRY( 43, 80)   DRY( 43, 81)   DRY( 43, 82)   
    DRY( 43, 83)   DRY( 43, 84)   DRY( 43, 85)   DRY( 43, 86)   DRY( 43, 87)   
    DRY( 43, 88)   DRY( 43, 89)   DRY( 43, 90)   DRY( 43, 91)   DRY( 43, 92)   
    DRY( 43, 93)   DRY( 43, 94)   DRY( 43, 95)   DRY( 43, 96)   DRY( 43, 97)   
    DRY( 43, 98)   DRY( 43, 99)   DRY( 43,100)   DRY( 43,101)   DRY( 43,102)   
    DRY( 43,103)   DRY( 43,104)   DRY( 43,105)   DRY( 43,106)   DRY( 43,107)   
    DRY( 43,108)   DRY( 43,109)   DRY( 43,110)   DRY( 43,111)   DRY( 43,112)   
    DRY( 43,113)   DRY( 43,114)   DRY( 43,115)   DRY( 43,116)   DRY( 43,117)   
    DRY( 43,118)   DRY( 43,119)   DRY( 43,120)   DRY( 43,121)   DRY( 43,122)   
    DRY( 43,123)   DRY( 43,124)   DRY( 43,125)   DRY( 43,126)   DRY( 43,127)   
    DRY( 43,128)   DRY( 43,129)   DRY( 43,130)   DRY( 43,131)   DRY( 43,132)   
    DRY( 43,133)   DRY( 43,134)   DRY( 43,135)   DRY( 43,136)   DRY( 43,137)   
    DRY( 43,138)   DRY( 43,139)   DRY( 43,140)   DRY( 43,141)   DRY( 43,142)   
    DRY( 43,143)   DRY( 43,144)   DRY( 43,145)   DRY( 43,146)   DRY( 43,147)   
    DRY( 43,148)   DRY( 43,149)   DRY( 43,150)   DRY( 43,151)   DRY( 43,152)   
    DRY( 43,153)   DRY( 43,154)   DRY( 43,155)   DRY( 43,156)   DRY( 43,157)   
    DRY( 43,158)   DRY( 43,159)   DRY( 43,160)   DRY( 43,161)   DRY( 43,162)   
    DRY( 43,163)   DRY( 43,164)   DRY( 43,165)   DRY( 43,166)   DRY( 43,167)   
    DRY( 43,168)   DRY( 43,169)   DRY( 43,170)   DRY( 43,171)   DRY( 43,172)   
    DRY( 43,173)   DRY( 43,174)   DRY( 43,175)   DRY( 43,176)   DRY( 43,177)   
    DRY( 43,178)   DRY( 43,179)   DRY( 43,180)   DRY( 43,181)   DRY( 43,182)   
    DRY( 43,183)   DRY( 43,184)   DRY( 43,185)   DRY( 43,186)   DRY( 43,187)   
    DRY( 43,188)   DRY( 43,189)   DRY( 43,190)   DRY( 43,191)   DRY( 43,192)   
    DRY( 43,193)   DRY( 43,194)   DRY( 43,195)   DRY( 43,196)   DRY( 43,197)   
    DRY( 43,198)   DRY( 43,199)   DRY( 43,200)   DRY( 43,201)   DRY( 43,202)   
    DRY( 43,203)   DRY( 43,204)   DRY( 43,205)   DRY( 43,206)   DRY( 43,207)   
    DRY( 43,208)   DRY( 43,209)   DRY( 43,210)   DRY( 43,211)   DRY( 43,212)   
    DRY( 43,213)   DRY( 43,214)   DRY( 43,215)   DRY( 43,216)   DRY( 43,217)   
    DRY( 43,218)   DRY( 43,219)   DRY( 43,220)   DRY( 44,  1)   DRY( 44,  2)   
    DRY( 44,  3)   DRY( 44,  4)   DRY( 44,  5)   DRY( 44,  6)   DRY( 44,  7)   
    DRY( 44,  8)   DRY( 44,  9)   DRY( 44, 10)   DRY( 44, 11)   DRY( 44, 12)   
    DRY( 44, 13)   DRY( 44, 14)   DRY( 44, 15)   DRY( 44, 16)   DRY( 44, 17)   
    DRY( 44, 18)   DRY( 44, 19)   DRY( 44, 20)   DRY( 44, 21)   DRY( 44, 22)   
    DRY( 44, 23)   DRY( 44, 24)   DRY( 44, 25)   DRY( 44, 26)   DRY( 44, 27)   
    DRY( 44, 28)   DRY( 44, 29)   DRY( 44, 30)   DRY( 44, 31)   DRY( 44, 32)   
    DRY( 44, 33)   DRY( 44, 34)   DRY( 44, 35)   DRY( 44, 36)   DRY( 44, 37)   
    DRY( 44, 38)   DRY( 44, 39)   DRY( 44, 40)   DRY( 44, 41)   DRY( 44, 42)   
    DRY( 44, 43)   DRY( 44, 44)   DRY( 44, 45)   DRY( 44, 46)   DRY( 44, 47)   
    DRY( 44, 48)   DRY( 44, 49)   DRY( 44, 50)   DRY( 44, 51)   DRY( 44, 52)   
    DRY( 44, 53)   DRY( 44, 54)   DRY( 44, 55)   DRY( 44, 56)   DRY( 44, 57)   
    DRY( 44, 58)   DRY( 44, 59)   DRY( 44, 60)   DRY( 44, 61)   DRY( 44, 62)   
    DRY( 44, 63)   DRY( 44, 64)   DRY( 44, 65)   DRY( 44, 66)   DRY( 44, 67)   
    DRY( 44, 68)   DRY( 44, 69)   DRY( 44, 70)   DRY( 44, 71)   DRY( 44, 72)   
    DRY( 44, 73)   DRY( 44, 74)   DRY( 44, 75)   DRY( 44, 76)   DRY( 44, 77)   
    DRY( 44, 78)   DRY( 44, 79)   DRY( 44, 80)   DRY( 44, 81)   DRY( 44, 82)   
    DRY( 44, 83)   DRY( 44, 84)   DRY( 44, 85)   DRY( 44, 86)   DRY( 44, 87)   
    DRY( 44, 88)   DRY( 44, 89)   DRY( 44, 90)   DRY( 44, 91)   DRY( 44, 92)   
    DRY( 44, 93)   DRY( 44, 94)   DRY( 44, 95)   DRY( 44, 96)   DRY( 44, 97)   
    DRY( 44, 98)   DRY( 44, 99)   DRY( 44,100)   DRY( 44,101)   DRY( 44,102)   
    DRY( 44,103)   DRY( 44,104)   DRY( 44,105)   DRY( 44,106)   DRY( 44,107)   
    DRY( 44,108)   DRY( 44,109)   DRY( 44,110)   DRY( 44,111)   DRY( 44,112)   
    DRY( 44,113)   DRY( 44,114)   DRY( 44,115)   DRY( 44,116)   DRY( 44,117)   
    DRY( 44,118)   DRY( 44,119)   DRY( 44,120)   DRY( 44,121)   DRY( 44,122)   
    DRY( 44,123)   DRY( 44,124)   DRY( 44,125)   DRY( 44,126)   DRY( 44,127)   
    DRY( 44,128)   DRY( 44,129)   DRY( 44,130)   DRY( 44,131)   DRY( 44,132)   
    DRY( 44,133)   DRY( 44,134)   DRY( 44,135)   DRY( 44,136)   DRY( 44,137)   
    DRY( 44,138)   DRY( 44,139)   DRY( 44,140)   DRY( 44,141)   DRY( 44,142)   
    DRY( 44,143)   DRY( 44,144)   DRY( 44,145)   DRY( 44,146)   DRY( 44,147)   
    DRY( 44,148)   DRY( 44,149)   DRY( 44,150)   DRY( 44,151)   DRY( 44,152)   
    DRY( 44,153)   DRY( 44,154)   DRY( 44,155)   DRY( 44,156)   DRY( 44,157)   
    DRY( 44,158)   DRY( 44,159)   DRY( 44,160)   DRY( 44,161)   DRY( 44,162)   
    DRY( 44,163)   DRY( 44,164)   DRY( 44,165)   DRY( 44,166)   DRY( 44,167)   
    DRY( 44,168)   DRY( 44,169)   DRY( 44,170)   DRY( 44,171)   DRY( 44,172)   
    DRY( 44,173)   DRY( 44,174)   DRY( 44,175)   DRY( 44,176)   DRY( 44,177)   
    DRY( 44,178)   DRY( 44,179)   DRY( 44,180)   DRY( 44,181)   DRY( 44,182)   
    DRY( 44,183)   DRY( 44,184)   DRY( 44,185)   DRY( 44,186)   DRY( 44,187)   
    DRY( 44,188)   DRY( 44,189)   DRY( 44,190)   DRY( 44,191)   DRY( 44,192)   
    DRY( 44,193)   DRY( 44,194)   DRY( 44,195)   DRY( 44,196)   DRY( 44,197)   
    DRY( 44,198)   DRY( 44,199)   DRY( 44,200)   DRY( 44,201)   DRY( 44,202)   
    DRY( 44,203)   DRY( 44,204)   DRY( 44,205)   DRY( 44,206)   DRY( 44,207)   
    DRY( 44,208)   DRY( 44,209)   DRY( 44,210)   DRY( 44,211)   DRY( 44,212)   
    DRY( 44,213)   DRY( 44,214)   DRY( 44,215)   DRY( 44,216)   DRY( 44,217)   
    DRY( 44,218)   DRY( 44,219)   DRY( 44,220)   DRY( 45,  1)   DRY( 45,  2)   
    DRY( 45,  3)   DRY( 45,  4)   DRY( 45,  5)   DRY( 45,  6)   DRY( 45,  7)   
    DRY( 45,  8)   DRY( 45,  9)   DRY( 45, 10)   DRY( 45, 11)   DRY( 45, 12)   
    DRY( 45, 13)   DRY( 45, 14)   DRY( 45, 15)   DRY( 45, 16)   DRY( 45, 17)   
    DRY( 45, 18)   DRY( 45, 19)   DRY( 45, 20)   DRY( 45, 21)   DRY( 45, 22)   
    DRY( 45, 23)   DRY( 45, 24)   DRY( 45, 25)   DRY( 45, 26)   DRY( 45, 27)   
    DRY( 45, 28)   DRY( 45, 29)   DRY( 45, 30)   DRY( 45, 31)   DRY( 45, 32)   
    DRY( 45, 33)   DRY( 45, 34)   DRY( 45, 35)   DRY( 45, 36)   DRY( 45, 37)   
    DRY( 45, 38)   DRY( 45, 39)   DRY( 45, 40)   DRY( 45, 41)   DRY( 45, 42)   
    DRY( 45, 43)   DRY( 45, 44)   DRY( 45, 45)   DRY( 45, 46)   DRY( 45, 47)   
    DRY( 45, 48)   DRY( 45, 49)   DRY( 45, 50)   DRY( 45, 51)   DRY( 45, 52)   
    DRY( 45, 53)   DRY( 45, 54)   DRY( 45, 55)   DRY( 45, 56)   DRY( 45, 57)   
    DRY( 45, 58)   DRY( 45, 59)   DRY( 45, 60)   DRY( 45, 61)   DRY( 45, 62)   
    DRY( 45, 63)   DRY( 45, 64)   DRY( 45, 65)   DRY( 45, 66)   DRY( 45, 67)   
    DRY( 45, 68)   DRY( 45, 69)   DRY( 45, 70)   DRY( 45, 71)   DRY( 45, 72)   
    DRY( 45, 73)   DRY( 45, 74)   DRY( 45, 75)   DRY( 45, 76)   DRY( 45, 77)   
    DRY( 45, 78)   DRY( 45, 79)   DRY( 45, 80)   DRY( 45, 81)   DRY( 45, 82)   
    DRY( 45, 83)   DRY( 45, 84)   DRY( 45, 85)   DRY( 45, 86)   DRY( 45, 87)   
    DRY( 45, 88)   DRY( 45, 89)   DRY( 45, 90)   DRY( 45, 91)   DRY( 45, 92)   
    DRY( 45, 93)   DRY( 45, 94)   DRY( 45, 95)   DRY( 45, 96)   DRY( 45, 97)   
    DRY( 45, 98)   DRY( 45, 99)   DRY( 45,100)   DRY( 45,101)   DRY( 45,102)   
    DRY( 45,103)   DRY( 45,104)   DRY( 45,105)   DRY( 45,106)   DRY( 45,107)   
    DRY( 45,108)   DRY( 45,109)   DRY( 45,110)   DRY( 45,111)   DRY( 45,112)   
    DRY( 45,113)   DRY( 45,114)   DRY( 45,115)   DRY( 45,116)   DRY( 45,117)   
    DRY( 45,118)   DRY( 45,119)   DRY( 45,120)   DRY( 45,121)   DRY( 45,122)   
    DRY( 45,123)   DRY( 45,124)   DRY( 45,125)   DRY( 45,126)   DRY( 45,127)   
    DRY( 45,128)   DRY( 45,129)   DRY( 45,130)   DRY( 45,131)   DRY( 45,132)   
    DRY( 45,133)   DRY( 45,134)   DRY( 45,135)   DRY( 45,136)   DRY( 45,137)   
    DRY( 45,138)   DRY( 45,139)   DRY( 45,140)   DRY( 45,141)   DRY( 45,142)   
    DRY( 45,143)   DRY( 45,144)   DRY( 45,145)   DRY( 45,146)   DRY( 45,147)   
    DRY( 45,148)   DRY( 45,149)   DRY( 45,150)   DRY( 45,151)   DRY( 45,152)   
    DRY( 45,153)   DRY( 45,154)   DRY( 45,155)   DRY( 45,156)   DRY( 45,157)   
    DRY( 45,158)   DRY( 45,159)   DRY( 45,160)   DRY( 45,161)   DRY( 45,162)   
    DRY( 45,163)   DRY( 45,164)   DRY( 45,165)   DRY( 45,166)   DRY( 45,167)   
    DRY( 45,168)   DRY( 45,169)   DRY( 45,170)   DRY( 45,171)   DRY( 45,172)   
    DRY( 45,173)   DRY( 45,174)   DRY( 45,175)   DRY( 45,176)   DRY( 45,177)   
    DRY( 45,178)   DRY( 45,179)   DRY( 45,180)   DRY( 45,181)   DRY( 45,182)   
    DRY( 45,183)   DRY( 45,184)   DRY( 45,185)   DRY( 45,186)   DRY( 45,187)   
    DRY( 45,188)   DRY( 45,189)   DRY( 45,190)   DRY( 45,191)   DRY( 45,192)   
    DRY( 45,193)   DRY( 45,194)   DRY( 45,195)   DRY( 45,196)   DRY( 45,197)   
    DRY( 45,198)   DRY( 45,199)   DRY( 45,200)   DRY( 45,201)   DRY( 45,202)   
    DRY( 45,203)   DRY( 45,204)   DRY( 45,205)   DRY( 45,206)   DRY( 45,207)   
    DRY( 45,208)   DRY( 45,209)   DRY( 45,210)   DRY( 45,211)   DRY( 45,212)   
    DRY( 45,213)   DRY( 45,214)   DRY( 45,215)   DRY( 45,216)   DRY( 45,217)   
    DRY( 45,218)   DRY( 45,219)   DRY( 45,220)   DRY( 46,  1)   DRY( 46,  2)   
    DRY( 46,  3)   DRY( 46,  4)   DRY( 46,  5)   DRY( 46,  6)   DRY( 46,  7)   
    DRY( 46,  8)   DRY( 46,  9)   DRY( 46, 10)   DRY( 46, 11)   DRY( 46, 12)   
    DRY( 46, 13)   DRY( 46, 14)   DRY( 46, 15)   DRY( 46, 16)   DRY( 46, 17)   
    DRY( 46, 18)   DRY( 46, 19)   DRY( 46, 20)   DRY( 46, 21)   DRY( 46, 22)   
    DRY( 46, 23)   DRY( 46, 24)   DRY( 46, 25)   DRY( 46, 26)   DRY( 46, 27)   
    DRY( 46, 28)   DRY( 46, 29)   DRY( 46, 30)   DRY( 46, 31)   DRY( 46, 32)   
    DRY( 46, 33)   DRY( 46, 34)   DRY( 46, 35)   DRY( 46, 36)   DRY( 46, 37)   
    DRY( 46, 38)   DRY( 46, 39)   DRY( 46, 40)   DRY( 46, 41)   DRY( 46, 42)   
    DRY( 46, 43)   DRY( 46, 44)   DRY( 46, 45)   DRY( 46, 46)   DRY( 46, 47)   
    DRY( 46, 48)   DRY( 46, 49)   DRY( 46, 50)   DRY( 46, 51)   DRY( 46, 52)   
    DRY( 46, 53)   DRY( 46, 54)   DRY( 46, 55)   DRY( 46, 56)   DRY( 46, 57)   
    DRY( 46, 58)   DRY( 46, 59)   DRY( 46, 60)   DRY( 46, 61)   DRY( 46, 62)   
    DRY( 46, 63)   DRY( 46, 64)   DRY( 46, 65)   DRY( 46, 66)   DRY( 46, 67)   
    DRY( 46, 68)   DRY( 46, 69)   DRY( 46, 70)   DRY( 46, 71)   DRY( 46, 72)   
    DRY( 46, 73)   DRY( 46, 74)   DRY( 46, 75)   DRY( 46, 76)   DRY( 46, 77)   
    DRY( 46, 78)   DRY( 46, 79)   DRY( 46, 80)   DRY( 46, 81)   DRY( 46, 82)   
    DRY( 46, 83)   DRY( 46, 84)   DRY( 46, 85)   DRY( 46, 86)   DRY( 46, 87)   
    DRY( 46, 88)   DRY( 46, 89)   DRY( 46, 90)   DRY( 46, 91)   DRY( 46, 92)   
    DRY( 46, 93)   DRY( 46, 94)   DRY( 46, 95)   DRY( 46, 96)   DRY( 46, 97)   
    DRY( 46, 98)   DRY( 46, 99)   DRY( 46,100)   DRY( 46,101)   DRY( 46,102)   
    DRY( 46,103)   DRY( 46,104)   DRY( 46,105)   DRY( 46,106)   DRY( 46,107)   
    DRY( 46,108)   DRY( 46,109)   DRY( 46,110)   DRY( 46,111)   DRY( 46,112)   
    DRY( 46,113)   DRY( 46,114)   DRY( 46,115)   DRY( 46,116)   DRY( 46,117)   
    DRY( 46,118)   DRY( 46,119)   DRY( 46,120)   DRY( 46,121)   DRY( 46,122)   
    DRY( 46,123)   DRY( 46,124)   DRY( 46,125)   DRY( 46,126)   DRY( 46,127)   
    DRY( 46,128)   DRY( 46,129)   DRY( 46,130)   DRY( 46,131)   DRY( 46,132)   
    DRY( 46,133)   DRY( 46,134)   DRY( 46,135)   DRY( 46,136)   DRY( 46,137)   
    DRY( 46,138)   DRY( 46,139)   DRY( 46,140)   DRY( 46,141)   DRY( 46,142)   
    DRY( 46,143)   DRY( 46,144)   DRY( 46,145)   DRY( 46,146)   DRY( 46,147)   
    DRY( 46,148)   DRY( 46,149)   DRY( 46,150)   DRY( 46,151)   DRY( 46,152)   
    DRY( 46,153)   DRY( 46,154)   DRY( 46,155)   DRY( 46,156)   DRY( 46,157)   
    DRY( 46,158)   DRY( 46,159)   DRY( 46,160)   DRY( 46,161)   DRY( 46,162)   
    DRY( 46,163)   DRY( 46,164)   DRY( 46,165)   DRY( 46,166)   DRY( 46,167)   
    DRY( 46,168)   DRY( 46,169)   DRY( 46,170)   DRY( 46,171)   DRY( 46,172)   
    DRY( 46,173)   DRY( 46,174)   DRY( 46,175)   DRY( 46,176)   DRY( 46,177)   
    DRY( 46,178)   DRY( 46,179)   DRY( 46,180)   DRY( 46,181)   DRY( 46,182)   
    DRY( 46,183)   DRY( 46,184)   DRY( 46,185)   DRY( 46,186)   DRY( 46,187)   
    DRY( 46,188)   DRY( 46,189)   DRY( 46,190)   DRY( 46,191)   DRY( 46,192)   
    DRY( 46,193)   DRY( 46,194)   DRY( 46,195)   DRY( 46,196)   DRY( 46,197)   
    DRY( 46,198)   DRY( 46,199)   DRY( 46,200)   DRY( 46,201)   DRY( 46,202)   
    DRY( 46,203)   DRY( 46,204)   DRY( 46,205)   DRY( 46,206)   DRY( 46,207)   
    DRY( 46,208)   DRY( 46,209)   DRY( 46,210)   DRY( 46,211)   DRY( 46,212)   
    DRY( 46,213)   DRY( 46,214)   DRY( 46,215)   DRY( 46,216)   DRY( 46,217)   
    DRY( 46,218)   DRY( 46,219)   DRY( 46,220)   DRY( 47,  1)   DRY( 47,  2)   
    DRY( 47,  3)   DRY( 47,  4)   DRY( 47,  5)   DRY( 47,  6)   DRY( 47,  7)   
    DRY( 47,  8)   DRY( 47,  9)   DRY( 47, 10)   DRY( 47, 11)   DRY( 47, 12)   
    DRY( 47, 13)   DRY( 47, 14)   DRY( 47, 15)   DRY( 47, 16)   DRY( 47, 17)   
    DRY( 47, 18)   DRY( 47, 19)   DRY( 47, 20)   DRY( 47, 21)   DRY( 47, 22)   
    DRY( 47, 23)   DRY( 47, 24)   DRY( 47, 25)   DRY( 47, 26)   DRY( 47, 27)   
    DRY( 47, 28)   DRY( 47, 29)   DRY( 47, 30)   DRY( 47, 31)   DRY( 47, 32)   
    DRY( 47, 33)   DRY( 47, 34)   DRY( 47, 35)   DRY( 47, 36)   DRY( 47, 37)   
    DRY( 47, 38)   DRY( 47, 39)   DRY( 47, 40)   DRY( 47, 41)   DRY( 47, 42)   
    DRY( 47, 43)   DRY( 47, 44)   DRY( 47, 45)   DRY( 47, 46)   DRY( 47, 47)   
    DRY( 47, 48)   DRY( 47, 49)   DRY( 47, 50)   DRY( 47, 51)   DRY( 47, 52)   
    DRY( 47, 53)   DRY( 47, 54)   DRY( 47, 55)   DRY( 47, 56)   DRY( 47, 57)   
    DRY( 47, 58)   DRY( 47, 59)   DRY( 47, 60)   DRY( 47, 61)   DRY( 47, 62)   
    DRY( 47, 63)   DRY( 47, 64)   DRY( 47, 65)   DRY( 47, 66)   DRY( 47, 67)   
    DRY( 47, 68)   DRY( 47, 69)   DRY( 47, 70)   DRY( 47, 71)   DRY( 47, 72)   
    DRY( 47, 73)   DRY( 47, 74)   DRY( 47, 75)   DRY( 47, 76)   DRY( 47, 77)   
    DRY( 47, 78)   DRY( 47, 79)   DRY( 47, 80)   DRY( 47, 81)   DRY( 47, 82)   
    DRY( 47, 83)   DRY( 47, 84)   DRY( 47, 85)   DRY( 47, 86)   DRY( 47, 87)   
    DRY( 47, 88)   DRY( 47, 89)   DRY( 47, 90)   DRY( 47, 91)   DRY( 47, 92)   
    DRY( 47, 93)   DRY( 47, 94)   DRY( 47, 95)   DRY( 47, 96)   DRY( 47, 97)   
    DRY( 47, 98)   DRY( 47, 99)   DRY( 47,100)   DRY( 47,101)   DRY( 47,102)   
    DRY( 47,103)   DRY( 47,104)   DRY( 47,105)   DRY( 47,106)   DRY( 47,107)   
    DRY( 47,108)   DRY( 47,109)   DRY( 47,110)   DRY( 47,111)   DRY( 47,112)   
    DRY( 47,113)   DRY( 47,114)   DRY( 47,115)   DRY( 47,116)   DRY( 47,117)   
    DRY( 47,118)   DRY( 47,119)   DRY( 47,120)   DRY( 47,121)   DRY( 47,122)   
    DRY( 47,123)   DRY( 47,124)   DRY( 47,125)   DRY( 47,126)   DRY( 47,127)   
    DRY( 47,128)   DRY( 47,129)   DRY( 47,130)   DRY( 47,131)   DRY( 47,132)   
    DRY( 47,133)   DRY( 47,134)   DRY( 47,135)   DRY( 47,136)   DRY( 47,137)   
    DRY( 47,138)   DRY( 47,139)   DRY( 47,140)   DRY( 47,141)   DRY( 47,142)   
    DRY( 47,143)   DRY( 47,144)   DRY( 47,145)   DRY( 47,146)   DRY( 47,147)   
    DRY( 47,148)   DRY( 47,149)   DRY( 47,150)   DRY( 47,151)   DRY( 47,152)   
    DRY( 47,153)   DRY( 47,154)   DRY( 47,155)   DRY( 47,156)   DRY( 47,157)   
    DRY( 47,158)   DRY( 47,159)   DRY( 47,160)   DRY( 47,161)   DRY( 47,162)   
    DRY( 47,163)   DRY( 47,164)   DRY( 47,165)   DRY( 47,166)   DRY( 47,167)   
    DRY( 47,168)   DRY( 47,169)   DRY( 47,170)   DRY( 47,171)   DRY( 47,172)   
    DRY( 47,173)   DRY( 47,174)   DRY( 47,175)   DRY( 47,176)   DRY( 47,177)   
    DRY( 47,178)   DRY( 47,179)   DRY( 47,180)   DRY( 47,181)   DRY( 47,182)   
    DRY( 47,183)   DRY( 47,184)   DRY( 47,185)   DRY( 47,186)   DRY( 47,187)   
    DRY( 47,188)   DRY( 47,189)   DRY( 47,190)   DRY( 47,191)   DRY( 47,192)   
    DRY( 47,193)   DRY( 47,194)   DRY( 47,195)   DRY( 47,196)   DRY( 47,197)   
    DRY( 47,198)   DRY( 47,199)   DRY( 47,200)   DRY( 47,201)   DRY( 47,202)   
    DRY( 47,203)   DRY( 47,204)   DRY( 47,205)   DRY( 47,206)   DRY( 47,207)   
    DRY( 47,208)   DRY( 47,209)   DRY( 47,210)   DRY( 47,211)   DRY( 47,212)   
    DRY( 47,213)   DRY( 47,214)   DRY( 47,215)   DRY( 47,216)   DRY( 47,217)   
    DRY( 47,218)   DRY( 47,219)   DRY( 47,220)   DRY( 48,  3)   DRY( 48,  4)   
    DRY( 48,  5)   DRY( 48,  6)   DRY( 48,  7)   DRY( 48,  8)   DRY( 48,  9)   
    DRY( 48, 10)   DRY( 48, 11)   DRY( 48, 12)   DRY( 48, 13)   DRY( 48, 14)   
    DRY( 48, 15)   DRY( 48, 16)   DRY( 48, 17)   DRY( 48, 18)   DRY( 48, 19)   
    DRY( 48, 20)   DRY( 48, 21)   DRY( 48, 22)   DRY( 48, 23)   DRY( 48, 24)   
    DRY( 48, 25)   DRY( 48, 26)   DRY( 48, 27)   DRY( 48, 28)   DRY( 48, 29)   
    DRY( 48, 30)   DRY( 48, 31)   DRY( 48, 32)   DRY( 48, 33)   DRY( 48, 34)   
    DRY( 48, 35)   DRY( 48, 36)   DRY( 48, 37)   DRY( 48, 38)   DRY( 48, 39)   
    DRY( 48, 40)   DRY( 48, 41)   DRY( 48, 42)   DRY( 48, 43)   DRY( 48, 44)   
    DRY( 48, 45)   DRY( 48, 46)   DRY( 48, 47)   DRY( 48, 48)   DRY( 48, 49)   
    DRY( 48, 50)   DRY( 48, 51)   DRY( 48, 52)   DRY( 48, 53)   DRY( 48, 54)   
    DRY( 48, 55)   DRY( 48, 56)   DRY( 48, 57)   DRY( 48, 58)   DRY( 48, 59)   
    DRY( 48, 60)   DRY( 48, 61)   DRY( 48, 62)   DRY( 48, 63)   DRY( 48, 64)   
    DRY( 48, 65)   DRY( 48, 66)   DRY( 48, 67)   DRY( 48, 68)   DRY( 48, 69)   
    DRY( 48, 70)   DRY( 48, 71)   DRY( 48, 72)   DRY( 48, 73)   DRY( 48, 74)   
    DRY( 48, 75)   DRY( 48, 76)   DRY( 48, 77)   DRY( 48, 78)   DRY( 48, 79)   
    DRY( 48, 80)   DRY( 48, 81)   DRY( 48, 82)   DRY( 48, 83)   DRY( 48, 84)   
    DRY( 48, 85)   DRY( 48, 86)   DRY( 48, 87)   DRY( 48, 88)   DRY( 48, 89)   
    DRY( 48, 90)   DRY( 48, 91)   DRY( 48, 92)   DRY( 48, 93)   DRY( 48, 94)   
    DRY( 48, 95)   DRY( 48, 96)   DRY( 48, 97)   DRY( 48, 98)   DRY( 48, 99)   
    DRY( 48,100)   DRY( 48,101)   DRY( 48,102)   DRY( 48,103)   DRY( 48,104)   
    DRY( 48,105)   DRY( 48,106)   DRY( 48,107)   DRY( 48,108)   DRY( 48,109)   
    DRY( 48,110)   DRY( 48,111)   DRY( 48,112)   DRY( 48,113)   DRY( 48,114)   
    DRY( 48,115)   DRY( 48,116)   DRY( 48,117)   DRY( 48,118)   DRY( 48,119)   
    DRY( 48,120)   DRY( 48,121)   DRY( 48,122)   DRY( 48,123)   DRY( 48,124)   
    DRY( 48,125)   DRY( 48,126)   DRY( 48,127)   DRY( 48,128)   DRY( 48,129)   
    DRY( 48,130)   DRY( 48,131)   DRY( 48,132)   DRY( 48,133)   DRY( 48,134)   
    DRY( 48,135)   DRY( 48,136)   DRY( 48,137)   DRY( 48,138)   DRY( 48,139)   
    DRY( 48,140)   DRY( 48,141)   DRY( 48,142)   DRY( 48,143)   DRY( 48,144)   
    DRY( 48,145)   DRY( 48,146)   DRY( 48,147)   DRY( 48,148)   DRY( 48,149)   
    DRY( 48,150)   DRY( 48,151)   DRY( 48,152)   DRY( 48,153)   DRY( 48,154)   
    DRY( 48,155)   DRY( 48,156)   DRY( 48,157)   DRY( 48,158)   DRY( 48,159)   
    DRY( 48,160)   DRY( 48,161)   DRY( 48,162)   DRY( 48,163)   DRY( 48,164)   
    DRY( 48,165)   DRY( 48,166)   DRY( 48,167)   DRY( 48,168)   DRY( 48,169)   
    DRY( 48,170)   DRY( 48,171)   DRY( 48,172)   DRY( 48,173)   DRY( 48,174)   
    DRY( 48,175)   DRY( 48,176)   DRY( 48,177)   DRY( 48,178)   DRY( 48,179)   
    DRY( 48,180)   DRY( 48,181)   DRY( 48,182)   DRY( 48,183)   DRY( 48,184)   
    DRY( 48,185)   DRY( 48,186)   DRY( 48,187)   DRY( 48,188)   DRY( 48,189)   
    DRY( 48,190)   DRY( 48,191)   DRY( 48,192)   DRY( 48,193)   DRY( 48,194)   
    DRY( 48,195)   DRY( 48,196)   DRY( 48,197)   DRY( 48,198)   DRY( 48,199)   
    DRY( 48,200)   DRY( 48,201)   DRY( 48,202)   DRY( 48,203)   DRY( 48,204)   
    DRY( 48,205)   DRY( 48,206)   DRY( 48,207)   DRY( 48,208)   DRY( 48,209)   
    DRY( 48,210)   DRY( 48,211)   DRY( 48,212)   DRY( 48,213)   DRY( 48,214)   
    DRY( 48,215)   DRY( 48,216)   DRY( 48,217)   DRY( 48,218)   DRY( 48,219)   
    DRY( 48,220)   DRY( 49, 18)   DRY( 49, 19)   DRY( 49, 20)   DRY( 49, 21)   
    DRY( 49, 22)   DRY( 49, 23)   DRY( 49, 24)   DRY( 49, 25)   DRY( 49, 26)   
    DRY( 49, 27)   DRY( 49, 28)   DRY( 49, 29)   DRY( 49, 30)   DRY( 49, 31)   
    DRY( 49, 32)   DRY( 49, 33)   DRY( 49, 34)   DRY( 49, 35)   DRY( 49, 36)   
    DRY( 49, 37)   DRY( 49, 38)   DRY( 49, 39)   DRY( 49, 40)   DRY( 49, 41)   
    DRY( 49, 42)   DRY( 49, 43)   DRY( 49, 44)   DRY( 49, 45)   DRY( 49, 46)   
    DRY( 49, 47)   DRY( 49, 48)   DRY( 49, 49)   DRY( 49, 50)   DRY( 49, 51)   
    DRY( 49, 52)   DRY( 49, 53)   DRY( 49, 54)   DRY( 49, 55)   DRY( 49, 56)   
    DRY( 49, 57)   DRY( 49, 58)   DRY( 49, 59)   DRY( 49, 60)   DRY( 49, 61)   
    DRY( 49, 62)   DRY( 49, 63)   DRY( 49, 64)   DRY( 49, 65)   DRY( 49, 66)   
    DRY( 49, 67)   DRY( 49, 68)   DRY( 49, 69)   DRY( 49, 70)   DRY( 49, 71)   
    DRY( 49, 72)   DRY( 49, 73)   DRY( 49, 74)   DRY( 49, 75)   DRY( 49, 76)   
    DRY( 49, 77)   DRY( 49, 78)   DRY( 49, 79)   DRY( 49, 80)   DRY( 49, 81)   
    DRY( 49, 82)   DRY( 49, 83)   DRY( 49, 84)   DRY( 49, 85)   DRY( 49, 86)   
    DRY( 49, 87)   DRY( 49, 88)   DRY( 49, 89)   DRY( 49, 90)   DRY( 49, 91)   
    DRY( 49, 92)   DRY( 49, 93)   DRY( 49, 94)   DRY( 49, 95)   DRY( 49, 96)   
    DRY( 49, 97)   DRY( 49, 98)   DRY( 49, 99)   DRY( 49,100)   DRY( 49,101)   
    DRY( 49,102)   DRY( 49,103)   DRY( 49,104)   DRY( 49,105)   DRY( 49,106)   
    DRY( 49,107)   DRY( 49,108)   DRY( 49,109)   DRY( 49,110)   DRY( 49,111)   
    DRY( 49,112)   DRY( 49,113)   DRY( 49,114)   DRY( 49,115)   DRY( 49,116)   
    DRY( 49,117)   DRY( 49,118)   DRY( 49,119)   DRY( 49,120)   DRY( 49,121)   
    DRY( 49,122)   DRY( 49,123)   DRY( 49,124)   DRY( 49,125)   DRY( 49,126)   
    DRY( 49,127)   DRY( 49,128)   DRY( 49,129)   DRY( 49,130)   DRY( 49,131)   
    DRY( 49,132)   DRY( 49,133)   DRY( 49,134)   DRY( 49,135)   DRY( 49,136)   
    DRY( 49,137)   DRY( 49,138)   DRY( 49,139)   DRY( 49,140)   DRY( 49,141)   
    DRY( 49,142)   DRY( 49,143)   DRY( 49,144)   DRY( 49,145)   DRY( 49,146)   
    DRY( 49,147)   DRY( 49,148)   DRY( 49,149)   DRY( 49,150)   DRY( 49,151)   
    DRY( 49,152)   DRY( 49,153)   DRY( 49,154)   DRY( 49,155)   DRY( 49,156)   
    DRY( 49,157)   DRY( 49,158)   DRY( 49,159)   DRY( 49,160)   DRY( 49,161)   
    DRY( 49,162)   DRY( 49,163)   DRY( 49,164)   DRY( 49,165)   DRY( 49,166)   
    DRY( 49,167)   DRY( 49,168)   DRY( 49,169)   DRY( 49,170)   DRY( 49,171)   
    DRY( 49,172)   DRY( 49,173)   DRY( 49,174)   DRY( 49,175)   DRY( 49,176)   
    DRY( 49,177)   DRY( 49,178)   DRY( 49,179)   DRY( 49,180)   DRY( 49,181)   
    DRY( 49,182)   DRY( 49,183)   DRY( 49,184)   DRY( 49,185)   DRY( 49,186)   
    DRY( 49,187)   DRY( 49,188)   DRY( 49,189)   DRY( 49,190)   DRY( 49,191)   
    DRY( 49,192)   DRY( 49,193)   DRY( 49,194)   DRY( 49,195)   DRY( 49,196)   
    DRY( 49,197)   DRY( 49,198)   DRY( 49,199)   DRY( 49,200)   DRY( 49,201)   
    DRY( 49,202)   DRY( 49,203)   DRY( 49,204)   DRY( 49,205)   DRY( 49,206)   
    DRY( 49,207)   DRY( 49,208)   DRY( 49,209)   DRY( 49,210)   DRY( 49,211)   
    DRY( 49,212)   DRY( 49,213)   DRY( 49,214)   DRY( 49,215)   DRY( 49,216)   
    DRY( 49,217)   DRY( 49,218)   DRY( 49,219)   DRY( 49,220)   DRY( 50, 21)   
    DRY( 50, 22)   DRY( 50, 23)   DRY( 50, 24)   DRY( 50, 25)   DRY( 50, 26)   
    DRY( 50, 27)   DRY( 50, 28)   DRY( 50, 29)   DRY( 50, 30)   DRY( 50, 31)   
    DRY( 50, 32)   DRY( 50, 33)   DRY( 50, 34)   DRY( 50, 35)   DRY( 50, 36)   
    DRY( 50, 37)   DRY( 50, 38)   DRY( 50, 39)   DRY( 50, 40)   DRY( 50, 41)   
    DRY( 50, 42)   DRY( 50, 43)   DRY( 50, 44)   DRY( 50, 45)   DRY( 50, 46)   
    DRY( 50, 47)   DRY( 50, 48)   DRY( 50, 49)   DRY( 50, 50)   DRY( 50, 51)   
    DRY( 50, 52)   DRY( 50, 53)   DRY( 50, 54)   DRY( 50, 55)   DRY( 50, 56)   
    DRY( 50, 57)   DRY( 50, 58)   DRY( 50, 59)   DRY( 50, 60)   DRY( 50, 61)   
    DRY( 50, 62)   DRY( 50, 63)   DRY( 50, 64)   DRY( 50, 65)   DRY( 50, 66)   
    DRY( 50, 67)   DRY( 50, 68)   DRY( 50, 69)   DRY( 50, 70)   DRY( 50, 71)   
    DRY( 50, 72)   DRY( 50, 73)   DRY( 50, 74)   DRY( 50, 75)   DRY( 50, 76)   
    DRY( 50, 77)   DRY( 50, 78)   DRY( 50, 79)   DRY( 50, 80)   DRY( 50, 81)   
    DRY( 50, 82)   DRY( 50, 83)   DRY( 50, 84)   DRY( 50, 85)   DRY( 50, 86)   
    DRY( 50, 87)   DRY( 50, 88)   DRY( 50, 89)   DRY( 50, 90)   DRY( 50, 91)   
    DRY( 50, 92)   DRY( 50, 93)   DRY( 50, 94)   DRY( 50, 95)   DRY( 50, 96)   
    DRY( 50, 97)   DRY( 50, 98)   DRY( 50, 99)   DRY( 50,100)   DRY( 50,101)   
    DRY( 50,102)   DRY( 50,103)   DRY( 50,104)   DRY( 50,105)   DRY( 50,106)   
    DRY( 50,107)   DRY( 50,108)   DRY( 50,109)   DRY( 50,110)   DRY( 50,111)   
    DRY( 50,112)   DRY( 50,113)   DRY( 50,114)   DRY( 50,115)   DRY( 50,116)   
    DRY( 50,117)   DRY( 50,118)   DRY( 50,119)   DRY( 50,120)   DRY( 50,121)   
    DRY( 50,122)   DRY( 50,123)   DRY( 50,124)   DRY( 50,125)   DRY( 50,126)   
    DRY( 50,127)   DRY( 50,128)   DRY( 50,129)   DRY( 50,130)   DRY( 50,131)   
    DRY( 50,132)   DRY( 50,133)   DRY( 50,134)   DRY( 50,135)   DRY( 50,136)   
    DRY( 50,137)   DRY( 50,138)   DRY( 50,139)   DRY( 50,140)   DRY( 50,141)   
    DRY( 50,142)   DRY( 50,143)   DRY( 50,144)   DRY( 50,145)   DRY( 50,146)   
    DRY( 50,147)   DRY( 50,148)   DRY( 50,149)   DRY( 50,150)   DRY( 50,151)   
    DRY( 50,152)   DRY( 50,153)   DRY( 50,154)   DRY( 50,155)   DRY( 50,156)   
    DRY( 50,157)   DRY( 50,158)   DRY( 50,159)   DRY( 50,160)   DRY( 50,161)   
    DRY( 50,162)   DRY( 50,163)   DRY( 50,164)   DRY( 50,165)   DRY( 50,166)   
    DRY( 50,167)   DRY( 50,168)   DRY( 50,169)   DRY( 50,170)   DRY( 50,171)   
    DRY( 50,172)   DRY( 50,173)   DRY( 50,174)   DRY( 50,175)   DRY( 50,176)   
    DRY( 50,177)   DRY( 50,178)   DRY( 50,179)   DRY( 50,180)   DRY( 50,181)   
    DRY( 50,182)   DRY( 50,183)   DRY( 50,184)   DRY( 50,185)   DRY( 50,186)   
    DRY( 50,187)   DRY( 50,188)   DRY( 50,189)   DRY( 50,190)   DRY( 50,191)   
    DRY( 50,192)   DRY( 50,193)   DRY( 50,194)   DRY( 50,195)   DRY( 50,196)   
    DRY( 50,197)   DRY( 50,198)   DRY( 50,199)   DRY( 50,200)   DRY( 50,201)   
    DRY( 50,202)   DRY( 50,203)   DRY( 50,204)   DRY( 50,205)   DRY( 50,206)   
    DRY( 50,207)   DRY( 50,208)   DRY( 50,209)   DRY( 50,210)   DRY( 50,211)   
    DRY( 50,212)   DRY( 50,213)   DRY( 50,214)   DRY( 50,215)   DRY( 50,216)   
    DRY( 50,217)   DRY( 50,218)   DRY( 50,219)   DRY( 50,220)   DRY( 51, 26)   
    DRY( 51, 27)   DRY( 51, 28)   DRY( 51, 29)   DRY( 51, 30)   DRY( 51, 31)   
    DRY( 51, 32)   DRY( 51, 33)   DRY( 51, 34)   DRY( 51, 35)   DRY( 51, 36)   
    DRY( 51, 37)   DRY( 51, 38)   DRY( 51, 39)   DRY( 51, 40)   DRY( 51, 41)   
    DRY( 51, 42)   DRY( 51, 43)   DRY( 51, 44)   DRY( 51, 45)   DRY( 51, 46)   
    DRY( 51, 47)   DRY( 51, 48)   DRY( 51, 49)   DRY( 51, 50)   DRY( 51, 51)   
    DRY( 51, 52)   DRY( 51, 53)   DRY( 51, 54)   DRY( 51, 55)   DRY( 51, 56)   
    DRY( 51, 57)   DRY( 51, 58)   DRY( 51, 59)   DRY( 51, 60)   DRY( 51, 61)   
    DRY( 51, 62)   DRY( 51, 63)   DRY( 51, 64)   DRY( 51, 65)   DRY( 51, 66)   
    DRY( 51, 67)   DRY( 51, 68)   DRY( 51, 69)   DRY( 51, 70)   DRY( 51, 71)   
    DRY( 51, 72)   DRY( 51, 73)   DRY( 51, 74)   DRY( 51, 75)   DRY( 51, 76)   
    DRY( 51, 77)   DRY( 51, 78)   DRY( 51, 79)   DRY( 51, 80)   DRY( 51, 81)   
    DRY( 51, 82)   DRY( 51, 83)   DRY( 51, 84)   DRY( 51, 85)   DRY( 51, 86)   
    DRY( 51, 87)   DRY( 51, 88)   DRY( 51, 89)   DRY( 51, 90)   DRY( 51, 91)   
    DRY( 51, 92)   DRY( 51, 93)   DRY( 51, 94)   DRY( 51, 95)   DRY( 51, 96)   
    DRY( 51, 97)   DRY( 51, 98)   DRY( 51, 99)   DRY( 51,100)   DRY( 51,101)   
    DRY( 51,102)   DRY( 51,103)   DRY( 51,104)   DRY( 51,105)   DRY( 51,106)   
    DRY( 51,107)   DRY( 51,108)   DRY( 51,109)   DRY( 51,110)   DRY( 51,111)   
    DRY( 51,112)   DRY( 51,113)   DRY( 51,114)   DRY( 51,115)   DRY( 51,116)   
    DRY( 51,117)   DRY( 51,118)   DRY( 51,119)   DRY( 51,120)   DRY( 51,121)   
    DRY( 51,122)   DRY( 51,123)   DRY( 51,124)   DRY( 51,125)   DRY( 51,126)   
    DRY( 51,127)   DRY( 51,128)   DRY( 51,129)   DRY( 51,130)   DRY( 51,131)   
    DRY( 51,132)   DRY( 51,133)   DRY( 51,134)   DRY( 51,135)   DRY( 51,136)   
    DRY( 51,137)   DRY( 51,138)   DRY( 51,139)   DRY( 51,140)   DRY( 51,141)   
    DRY( 51,142)   DRY( 51,143)   DRY( 51,144)   DRY( 51,145)   DRY( 51,146)   
    DRY( 51,147)   DRY( 51,148)   DRY( 51,149)   DRY( 51,150)   DRY( 51,151)   
    DRY( 51,152)   DRY( 51,153)   DRY( 51,154)   DRY( 51,155)   DRY( 51,156)   
    DRY( 51,157)   DRY( 51,158)   DRY( 51,159)   DRY( 51,160)   DRY( 51,161)   
    DRY( 51,162)   DRY( 51,163)   DRY( 51,164)   DRY( 51,165)   DRY( 51,166)   
    DRY( 51,167)   DRY( 51,168)   DRY( 51,169)   DRY( 51,170)   DRY( 51,171)   
    DRY( 51,172)   DRY( 51,173)   DRY( 51,174)   DRY( 51,175)   DRY( 51,176)   
    DRY( 51,177)   DRY( 51,178)   DRY( 51,179)   DRY( 51,180)   DRY( 51,181)   
    DRY( 51,182)   DRY( 51,183)   DRY( 51,184)   DRY( 51,185)   DRY( 51,186)   
    DRY( 51,187)   DRY( 51,188)   DRY( 51,189)   DRY( 51,190)   DRY( 51,191)   
    DRY( 51,192)   DRY( 51,193)   DRY( 51,194)   DRY( 51,195)   DRY( 51,196)   
    DRY( 51,197)   DRY( 51,198)   DRY( 51,199)   DRY( 51,200)   DRY( 51,201)   
    DRY( 51,202)   DRY( 51,203)   DRY( 51,204)   DRY( 51,205)   DRY( 51,206)   
    DRY( 51,207)   DRY( 51,208)   DRY( 51,209)   DRY( 51,210)   DRY( 51,211)   
    DRY( 51,212)   DRY( 51,213)   DRY( 51,214)   DRY( 51,215)   DRY( 51,216)   
    DRY( 51,217)   DRY( 51,218)   DRY( 51,219)   DRY( 51,220)   DRY( 52, 38)   
    DRY( 52, 39)   DRY( 52, 40)   DRY( 52, 41)   DRY( 52, 42)   DRY( 52, 43)   
    DRY( 52, 44)   DRY( 52, 45)   DRY( 52, 46)   DRY( 52, 47)   DRY( 52, 48)   
    DRY( 52, 49)   DRY( 52, 50)   DRY( 52, 51)   DRY( 52, 52)   DRY( 52, 53)   
    DRY( 52, 54)   DRY( 52, 55)   DRY( 52, 56)   DRY( 52, 57)   DRY( 52, 58)   
    DRY( 52, 70)   DRY( 52, 71)   DRY( 52, 72)   DRY( 52, 73)   DRY( 52, 74)   
    DRY( 52, 75)   DRY( 52, 76)   DRY( 52, 77)   DRY( 52, 78)   DRY( 52, 79)   
    DRY( 52, 80)   DRY( 52, 81)   DRY( 52, 82)   DRY( 52, 83)   DRY( 52, 84)   
    DRY( 52, 85)   DRY( 52, 86)   DRY( 52, 87)   DRY( 52, 88)   DRY( 52, 89)   
    DRY( 52, 90)   DRY( 52, 91)   DRY( 52, 92)   DRY( 52, 93)   DRY( 52, 94)   
    DRY( 52, 95)   DRY( 52, 96)   DRY( 52, 97)   DRY( 52, 98)   DRY( 52, 99)   
    DRY( 52,100)   DRY( 52,101)   DRY( 52,102)   DRY( 52,103)   DRY( 52,104)   
    DRY( 52,105)   DRY( 52,106)   DRY( 52,107)   DRY( 52,108)   DRY( 52,109)   
    DRY( 52,110)   DRY( 52,111)   DRY( 52,112)   DRY( 52,113)   DRY( 52,114)   
    DRY( 52,115)   DRY( 52,116)   DRY( 52,117)   DRY( 52,118)   DRY( 52,119)   
    DRY( 52,120)   DRY( 52,121)   DRY( 52,122)   DRY( 52,123)   DRY( 52,124)   
    DRY( 52,125)   DRY( 52,126)   DRY( 52,127)   DRY( 52,128)   DRY( 52,129)   
    DRY( 52,130)   DRY( 52,131)   DRY( 52,132)   DRY( 52,133)   DRY( 52,134)   
    DRY( 52,135)   DRY( 52,136)   DRY( 52,137)   DRY( 52,138)   DRY( 52,139)   
    DRY( 52,140)   DRY( 52,141)   DRY( 52,142)   DRY( 52,143)   DRY( 52,144)   
    DRY( 52,145)   DRY( 52,146)   DRY( 52,147)   DRY( 52,148)   DRY( 52,149)   
    DRY( 52,150)   DRY( 52,151)   DRY( 52,152)   DRY( 52,153)   DRY( 52,154)   
    DRY( 52,155)   DRY( 52,156)   DRY( 52,157)   DRY( 52,158)   DRY( 52,159)   
    DRY( 52,160)   DRY( 52,161)   DRY( 52,162)   DRY( 52,163)   DRY( 52,164)   
    DRY( 52,165)   DRY( 52,166)   DRY( 52,167)   DRY( 52,168)   DRY( 52,169)   
    DRY( 52,170)   DRY( 52,171)   DRY( 52,172)   DRY( 52,173)   DRY( 52,174)   
    DRY( 52,175)   DRY( 52,176)   DRY( 52,177)   DRY( 52,178)   DRY( 52,179)   
    DRY( 52,180)   DRY( 52,181)   DRY( 52,182)   DRY( 52,183)   DRY( 52,184)   
    DRY( 52,185)   DRY( 52,186)   DRY( 52,187)   DRY( 52,188)   DRY( 52,189)   
    DRY( 52,190)   DRY( 52,191)   DRY( 52,192)   DRY( 52,193)   DRY( 52,194)   
    DRY( 52,195)   DRY( 52,196)   DRY( 52,197)   DRY( 52,198)   DRY( 52,199)   
    DRY( 52,200)   DRY( 52,201)   DRY( 52,202)   DRY( 52,203)   DRY( 52,204)   
    DRY( 52,205)   DRY( 52,206)   DRY( 52,207)   DRY( 52,208)   DRY( 52,209)   
    DRY( 52,210)   DRY( 52,211)   DRY( 52,212)   DRY( 52,213)   DRY( 52,214)   
    DRY( 52,215)   DRY( 52,216)   DRY( 52,217)   DRY( 52,218)   DRY( 52,219)   
    DRY( 52,220)   DRY( 53, 43)   DRY( 53, 44)   DRY( 53, 45)   DRY( 53, 46)   
    DRY( 53, 75)   DRY( 53, 76)   DRY( 53, 77)   DRY( 53, 78)   DRY( 53, 79)   
    DRY( 53, 80)   DRY( 53, 81)   DRY( 53, 82)   DRY( 53, 83)   DRY( 53, 84)   
    DRY( 53, 85)   DRY( 53, 86)   DRY( 53, 87)   DRY( 53, 88)   DRY( 53, 89)   
    DRY( 53, 90)   DRY( 53, 91)   DRY( 53, 92)   DRY( 53, 93)   DRY( 53, 94)   
    DRY( 53, 95)   DRY( 53, 96)   DRY( 53, 97)   DRY( 53, 98)   DRY( 53, 99)   
    DRY( 53,100)   DRY( 53,101)   DRY( 53,102)   DRY( 53,103)   DRY( 53,104)   
    DRY( 53,105)   DRY( 53,106)   DRY( 53,107)   DRY( 53,108)   DRY( 53,109)   
    DRY( 53,123)   DRY( 53,124)   DRY( 53,125)   DRY( 53,126)   DRY( 53,127)   
    DRY( 53,128)   DRY( 53,129)   DRY( 53,130)   DRY( 53,131)   DRY( 53,132)   
    DRY( 53,133)   DRY( 53,134)   DRY( 53,135)   DRY( 53,136)   DRY( 53,137)   
    DRY( 53,138)   DRY( 53,139)   DRY( 53,140)   DRY( 53,141)   DRY( 53,142)   
    DRY( 53,143)   DRY( 53,144)   DRY( 53,145)   DRY( 53,146)   DRY( 53,147)   
    DRY( 53,148)   DRY( 53,149)   DRY( 53,150)   DRY( 53,151)   DRY( 53,152)   
    DRY( 53,153)   DRY( 53,154)   DRY( 53,155)   DRY( 53,156)   DRY( 53,157)   
    DRY( 53,158)   DRY( 53,159)   DRY( 53,160)   DRY( 53,161)   DRY( 53,162)   
    DRY( 53,163)   DRY( 53,164)   DRY( 53,165)   DRY( 53,166)   DRY( 53,167)   
    DRY( 53,168)   DRY( 53,169)   DRY( 53,170)   DRY( 53,171)   DRY( 53,172)   
    DRY( 53,173)   DRY( 53,174)   DRY( 53,175)   DRY( 53,176)   DRY( 53,177)   
    DRY( 53,178)   DRY( 53,179)   DRY( 53,180)   DRY( 53,181)   DRY( 53,182)   
    DRY( 53,183)   DRY( 53,184)   DRY( 53,185)   DRY( 53,186)   DRY( 53,187)   
    DRY( 53,188)   DRY( 53,189)   DRY( 53,190)   DRY( 53,191)   DRY( 53,192)   
    DRY( 53,193)   DRY( 53,194)   DRY( 53,195)   DRY( 53,196)   DRY( 53,197)   
    DRY( 53,198)   DRY( 53,199)   DRY( 53,200)   DRY( 53,201)   DRY( 53,202)   
    DRY( 53,203)   DRY( 53,204)   DRY( 53,205)   DRY( 53,206)   DRY( 53,207)   
    DRY( 53,208)   DRY( 53,209)   DRY( 53,210)   DRY( 53,211)   DRY( 53,212)   
    DRY( 53,213)   DRY( 53,214)   DRY( 53,215)   DRY( 53,216)   DRY( 53,217)   
    DRY( 53,218)   DRY( 53,219)   DRY( 53,220)   DRY( 54, 96)   DRY( 54, 97)   
    DRY( 54, 98)   DRY( 54, 99)   DRY( 54,100)   DRY( 54,101)   DRY( 54,102)   
    DRY( 54,103)   DRY( 54,104)   DRY( 54,105)   DRY( 54,133)   DRY( 54,134)   
    DRY( 54,135)   DRY( 54,136)   DRY( 54,137)   DRY( 54,138)   DRY( 54,139)   
    DRY( 54,140)   DRY( 54,141)   DRY( 54,142)   DRY( 54,143)   DRY( 54,144)   
    DRY( 54,145)   DRY( 54,146)   DRY( 54,147)   DRY( 54,148)   DRY( 54,149)   
    DRY( 54,150)   DRY( 54,151)   DRY( 54,152)   DRY( 54,153)   DRY( 54,154)   
    DRY( 54,155)   DRY( 54,156)   DRY( 54,157)   DRY( 54,158)   DRY( 54,159)   
    DRY( 54,160)   DRY( 54,161)   DRY( 54,162)   DRY( 54,163)   DRY( 54,164)   
    DRY( 54,165)   DRY( 54,166)   DRY( 54,167)   DRY( 54,168)   DRY( 54,169)   
    DRY( 54,170)   DRY( 54,171)   DRY( 54,172)   DRY( 54,173)   DRY( 54,174)   
    DRY( 54,175)   DRY( 54,187)   DRY( 54,188)   DRY( 54,189)   DRY( 54,190)   
    DRY( 54,191)   DRY( 54,192)   DRY( 54,201)   DRY( 54,202)   DRY( 54,203)   
    DRY( 54,204)   DRY( 54,205)   DRY( 54,206)   DRY( 54,207)   DRY( 54,208)   
    DRY( 54,209)   DRY( 54,210)   DRY( 54,211)   DRY( 54,212)   DRY( 54,213)   
    DRY( 54,214)   DRY( 54,215)   DRY( 54,216)   DRY( 54,217)   DRY( 54,218)   
    DRY( 54,219)   DRY( 54,220)   DRY( 55,138)   DRY( 55,139)   DRY( 55,140)   
    DRY( 55,141)   DRY( 55,142)   DRY( 55,143)   DRY( 55,144)   DRY( 55,145)   
    DRY( 55,154)   DRY( 55,155)   DRY( 55,156)   DRY( 55,157)   DRY( 55,158)   
    DRY( 55,159)   DRY( 55,160)   DRY( 55,161)   DRY( 55,162)   DRY( 55,163)   
    DRY( 55,203)   DRY( 55,204)   DRY( 55,205)   DRY( 55,206)   DRY( 55,207)   
    DRY( 55,208)   DRY( 55,209)   DRY( 55,215)   DRY( 55,216)   DRY( 55,217)   
    DRY( 55,218)   DRY( 55,219)   DRY( 55,220)   DRY( 56,158)   DRY( 56,159)   
    DRY( 56,160)   DRY( 56,161)   DRY( 56,206)   DRY( 56,207)   DRY( 56,208)   
    DRY( 56,217)   DRY( 56,218)   DRY( 56,219)   DRY( 56,220)   

 CELL CONVERSIONS FOR ITER.=  3  LAYER= 18  STEP=  1  PERIOD=   1   (ROW,COL)
    DRY( 41,  1)   DRY( 41,  2)   DRY( 41,  3)   DRY( 41,  4)   DRY( 41,  5)   
    DRY( 41,  6)   DRY( 41,  7)   DRY( 41,  8)   DRY( 41,  9)   DRY( 41, 10)   
    DRY( 41, 11)   DRY( 41, 12)   DRY( 42,  1)   DRY( 42,  2)   DRY( 42,  3)   
    DRY( 42,  4)   DRY( 42,  5)   DRY( 42,  6)   DRY( 42,  7)   DRY( 42,  8)   
    DRY( 42,  9)   DRY( 42, 10)   DRY( 42, 11)   DRY( 42, 12)   DRY( 42, 13)   
    DRY( 42, 14)   DRY( 42, 15)   DRY( 42, 16)   DRY( 42, 17)   DRY( 42, 18)   
    DRY( 42, 19)   DRY( 42, 20)   DRY( 42, 21)   DRY( 42, 22)   DRY( 42, 23)   
    DRY( 42, 24)   DRY( 42, 25)   DRY( 42, 26)   DRY( 42, 27)   DRY( 42, 28)   
    DRY( 42, 29)   DRY( 42, 30)   DRY( 42, 31)   DRY( 42, 32)   DRY( 42, 33)   
    DRY( 42, 34)   DRY( 42, 35)   DRY( 42, 36)   DRY( 42, 37)   DRY( 42, 38)   
    DRY( 42, 39)   DRY( 42, 40)   DRY( 42, 41)   DRY( 42, 42)   DRY( 42, 43)   
    DRY( 42, 44)   DRY( 42, 45)   DRY( 42, 46)   DRY( 42, 47)   DRY( 42, 48)   
    DRY( 42, 49)   DRY( 42, 50)   DRY( 42, 51)   DRY( 42, 52)   DRY( 42, 53)   
    DRY( 42, 54)   DRY( 42, 55)   DRY( 42, 56)   DRY( 42, 57)   DRY( 42, 58)   
    DRY( 42, 59)   DRY( 42, 60)   DRY( 42, 61)   DRY( 42, 62)   DRY( 42, 63)   
    DRY( 42, 64)   DRY( 42, 65)   DRY( 42, 66)   DRY( 42, 67)   DRY( 42, 68)   
    DRY( 42, 69)   DRY( 42, 70)   DRY( 42, 71)   DRY( 42, 72)   DRY( 42, 73)   
    DRY( 42, 74)   DRY( 42, 75)   DRY( 42, 76)   DRY( 42, 77)   DRY( 42, 78)   
    DRY( 42, 79)   DRY( 42, 80)   DRY( 42, 81)   DRY( 42, 82)   DRY( 42, 83)   
    DRY( 42, 84)   DRY( 42, 85)   DRY( 42, 86)   DRY( 42, 87)   DRY( 42, 88)   
    DRY( 42, 89)   DRY( 42, 90)   DRY( 42, 91)   DRY( 43,  1)   DRY( 43,  2)   
    DRY( 43,  3)   DRY( 43,  4)   DRY( 43,  5)   DRY( 43,  6)   DRY( 43,  7)   
    DRY( 43,  8)   DRY( 43,  9)   DRY( 43, 10)   DRY( 43, 11)   DRY( 43, 12)   
    DRY( 43, 13)   DRY( 43, 14)   DRY( 43, 15)   DRY( 43, 16)   DRY( 43, 17)   
    DRY( 43, 18)   DRY( 43, 19)   DRY( 43, 20)   DRY( 43, 21)   DRY( 43, 22)   
    DRY( 43, 23)   DRY( 43, 24)   DRY( 43, 25)   DRY( 43, 26)   DRY( 43, 27)   
    DRY( 43, 28)   DRY( 43, 29)   DRY( 43, 30)   DRY( 43, 31)   DRY( 43, 32)   
    DRY( 43, 33)   DRY( 43, 34)   DRY( 43, 35)   DRY( 43, 36)   DRY( 43, 37)   
    DRY( 43, 38)   DRY( 43, 39)   DRY( 43, 40)   DRY( 43, 41)   DRY( 43, 42)   
    DRY( 43, 43)   DRY( 43, 44)   DRY( 43, 45)   DRY( 43, 46)   DRY( 43, 47)   
    DRY( 43, 48)   DRY( 43, 49)   DRY( 43, 50)   DRY( 43, 51)   DRY( 43, 52)   
    DRY( 43, 53)   DRY( 43, 54)   DRY( 43, 55)   DRY( 43, 56)   DRY( 43, 57)   
    DRY( 43, 58)   DRY( 43, 59)   DRY( 43, 60)   DRY( 43, 61)   DRY( 43, 62)   
    DRY( 43, 63)   DRY( 43, 64)   DRY( 43, 65)   DRY( 43, 66)   DRY( 43, 67)   
    DRY( 43, 68)   DRY( 43, 69)   DRY( 43, 70)   DRY( 43, 71)   DRY( 43, 72)   
    DRY( 43, 73)   DRY( 43, 74)   DRY( 43, 75)   DRY( 43, 76)   DRY( 43, 77)   
    DRY( 43, 78)   DRY( 43, 79)   DRY( 43, 80)   DRY( 43, 81)   DRY( 43, 82)   
    DRY( 43, 83)   DRY( 43, 84)   DRY( 43, 85)   DRY( 43, 86)   DRY( 43, 87)   
    DRY( 43, 88)   DRY( 43, 89)   DRY( 43, 90)   DRY( 43, 91)   DRY( 43, 92)   
    DRY( 43, 93)   DRY( 43, 94)   DRY( 43, 95)   DRY( 43, 96)   DRY( 43, 97)   
    DRY( 43, 98)   DRY( 43, 99)   DRY( 43,100)   DRY( 43,101)   DRY( 43,102)   
    DRY( 43,103)   DRY( 43,104)   DRY( 43,105)   DRY( 43,106)   DRY( 43,107)   
    DRY( 43,108)   DRY( 43,109)   DRY( 43,110)   DRY( 43,111)   DRY( 43,112)   
    DRY( 43,113)   DRY( 43,114)   DRY( 43,115)   DRY( 43,116)   DRY( 43,117)   
    DRY( 43,118)   DRY( 43,119)   DRY( 43,120)   DRY( 43,121)   DRY( 43,122)   
    DRY( 43,123)   DRY( 43,124)   DRY( 43,125)   DRY( 43,126)   DRY( 43,127)   
    DRY( 43,128)   DRY( 43,129)   DRY( 43,130)   DRY( 43,131)   DRY( 43,132)   
    DRY( 43,133)   DRY( 43,134)   DRY( 43,135)   DRY( 43,136)   DRY( 43,137)   
    DRY( 43,138)   DRY( 43,139)   DRY( 43,140)   DRY( 43,141)   DRY( 43,142)   
    DRY( 43,143)   DRY( 43,144)   DRY( 43,145)   DRY( 43,146)   DRY( 43,147)   
    DRY( 43,148)   DRY( 43,149)   DRY( 43,150)   DRY( 43,151)   DRY( 43,152)   
    DRY( 43,153)   DRY( 43,154)   DRY( 43,155)   DRY( 43,156)   DRY( 43,157)   
    DRY( 43,158)   DRY( 43,159)   DRY( 43,160)   DRY( 43,161)   DRY( 43,162)   
    DRY( 43,163)   DRY( 43,164)   DRY( 43,165)   DRY( 43,166)   DRY( 43,167)   
    DRY( 43,168)   DRY( 44,  1)   DRY( 44,  2)   DRY( 44,  3)   DRY( 44,  4)   
    DRY( 44,  5)   DRY( 44,  6)   DRY( 44,  7)   DRY( 44,  8)   DRY( 44,  9)   
    DRY( 44, 10)   DRY( 44, 11)   DRY( 44, 12)   DRY( 44, 13)   DRY( 44, 14)   
    DRY( 44, 15)   DRY( 44, 16)   DRY( 44, 17)   DRY( 44, 18)   DRY( 44, 19)   
    DRY( 44, 20)   DRY( 44, 21)   DRY( 44, 22)   DRY( 44, 23)   DRY( 44, 24)   
    DRY( 44, 25)   DRY( 44, 26)   DRY( 44, 27)   DRY( 44, 28)   DRY( 44, 29)   
    DRY( 44, 30)   DRY( 44, 31)   DRY( 44, 32)   DRY( 44, 33)   DRY( 44, 34)   
    DRY( 44, 35)   DRY( 44, 36)   DRY( 44, 37)   DRY( 44, 38)   DRY( 44, 39)   
    DRY( 44, 40)   DRY( 44, 41)   DRY( 44, 42)   DRY( 44, 43)   DRY( 44, 44)   
    DRY( 44, 45)   DRY( 44, 46)   DRY( 44, 47)   DRY( 44, 48)   DRY( 44, 49)   
    DRY( 44, 50)   DRY( 44, 51)   DRY( 44, 52)   DRY( 44, 53)   DRY( 44, 54)   
    DRY( 44, 55)   DRY( 44, 56)   DRY( 44, 57)   DRY( 44, 58)   DRY( 44, 59)   
    DRY( 44, 60)   DRY( 44, 61)   DRY( 44, 62)   DRY( 44, 63)   DRY( 44, 64)   
    DRY( 44, 65)   DRY( 44, 66)   DRY( 44, 67)   DRY( 44, 68)   DRY( 44, 69)   
    DRY( 44, 70)   DRY( 44, 71)   DRY( 44, 72)   DRY( 44, 73)   DRY( 44, 74)   
    DRY( 44, 75)   DRY( 44, 76)   DRY( 44, 77)   DRY( 44, 78)   DRY( 44, 79)   
    DRY( 44, 80)   DRY( 44, 81)   DRY( 44, 82)   DRY( 44, 83)   DRY( 44, 84)   
    DRY( 44, 85)   DRY( 44, 86)   DRY( 44, 87)   DRY( 44, 88)   DRY( 44, 89)   
    DRY( 44, 90)   DRY( 44, 91)   DRY( 44, 92)   DRY( 44, 93)   DRY( 44, 94)   
    DRY( 44, 95)   DRY( 44, 96)   DRY( 44, 97)   DRY( 44, 98)   DRY( 44, 99)   
    DRY( 44,100)   DRY( 44,101)   DRY( 44,102)   DRY( 44,103)   DRY( 44,104)   
    DRY( 44,105)   DRY( 44,106)   DRY( 44,107)   DRY( 44,108)   DRY( 44,109)   
    DRY( 44,110)   DRY( 44,111)   DRY( 44,112)   DRY( 44,113)   DRY( 44,114)   
    DRY( 44,115)   DRY( 44,116)   DRY( 44,117)   DRY( 44,118)   DRY( 44,119)   
    DRY( 44,120)   DRY( 44,121)   DRY( 44,122)   DRY( 44,123)   DRY( 44,124)   
    DRY( 44,125)   DRY( 44,126)   DRY( 44,127)   DRY( 44,128)   DRY( 44,129)   
    DRY( 44,130)   DRY( 44,131)   DRY( 44,132)   DRY( 44,133)   DRY( 44,134)   
    DRY( 44,135)   DRY( 44,136)   DRY( 44,137)   DRY( 44,138)   DRY( 44,139)   
    DRY( 44,140)   DRY( 44,141)   DRY( 44,142)   DRY( 44,143)   DRY( 44,144)   
    DRY( 44,145)   DRY( 44,146)   DRY( 44,147)   DRY( 44,148)   DRY( 44,149)   
    DRY( 44,150)   DRY( 44,151)   DRY( 44,152)   DRY( 44,153)   DRY( 44,154)   
    DRY( 44,155)   DRY( 44,156)   DRY( 44,157)   DRY( 44,158)   DRY( 44,159)   
    DRY( 44,160)   DRY( 44,161)   DRY( 44,162)   DRY( 44,163)   DRY( 44,164)   
    DRY( 44,165)   DRY( 44,166)   DRY( 44,167)   DRY( 44,168)   DRY( 44,169)   
    DRY( 44,170)   DRY( 44,171)   DRY( 44,172)   DRY( 44,173)   DRY( 44,174)   
    DRY( 44,175)   DRY( 44,176)   DRY( 44,177)   DRY( 44,178)   DRY( 44,179)   
    DRY( 44,180)   DRY( 44,181)   DRY( 44,182)   DRY( 44,183)   DRY( 44,184)   
    DRY( 44,185)   DRY( 44,186)   DRY( 44,187)   DRY( 44,188)   DRY( 44,189)   
    DRY( 44,190)   DRY( 44,191)   DRY( 44,192)   DRY( 44,193)   DRY( 44,194)   
    DRY( 44,195)   DRY( 44,196)   DRY( 44,197)   DRY( 44,198)   DRY( 44,199)   
    DRY( 44,200)   DRY( 44,201)   DRY( 44,202)   DRY( 44,203)   DRY( 44,204)   
    DRY( 44,205)   DRY( 44,206)   DRY( 44,207)   DRY( 44,208)   DRY( 44,209)   
    DRY( 44,210)   DRY( 44,211)   DRY( 44,212)   DRY( 44,213)   DRY( 44,214)   
    DRY( 44,215)   DRY( 44,216)   DRY( 44,217)   DRY( 44,218)   DRY( 44,219)   
    DRY( 44,220)   DRY( 45,  1)   DRY( 45,  2)   DRY( 45,  3)   DRY( 45,  4)   
    DRY( 45,  5)   DRY( 45,  6)   DRY( 45,  7)   DRY( 45,  8)   DRY( 45,  9)   
    DRY( 45, 10)   DRY( 45, 11)   DRY( 45, 12)   DRY( 45, 13)   DRY( 45, 14)   
    DRY( 45, 15)   DRY( 45, 16)   DRY( 45, 17)   DRY( 45, 18)   DRY( 45, 19)   
    DRY( 45, 20)   DRY( 45, 21)   DRY( 45, 22)   DRY( 45, 23)   DRY( 45, 24)   
    DRY( 45, 25)   DRY( 45, 26)   DRY( 45, 27)   DRY( 45, 28)   DRY( 45, 29)   
    DRY( 45, 30)   DRY( 45, 31)   DRY( 45, 32)   DRY( 45, 33)   DRY( 45, 34)   
    DRY( 45, 35)   DRY( 45, 36)   DRY( 45, 37)   DRY( 45, 38)   DRY( 45, 39)   
    DRY( 45, 40)   DRY( 45, 41)   DRY( 45, 42)   DRY( 45, 43)   DRY( 45, 44)   
    DRY( 45, 45)   DRY( 45, 46)   DRY( 45, 47)   DRY( 45, 48)   DRY( 45, 49)   
    DRY( 45, 50)   DRY( 45, 51)   DRY( 45, 52)   DRY( 45, 53)   DRY( 45, 54)   
    DRY( 45, 55)   DRY( 45, 56)   DRY( 45, 57)   DRY( 45, 58)   DRY( 45, 59)   
    DRY( 45, 60)   DRY( 45, 61)   DRY( 45, 62)   DRY( 45, 63)   DRY( 45, 64)   
    DRY( 45, 65)   DRY( 45, 66)   DRY( 45, 67)   DRY( 45, 68)   DRY( 45, 69)   
    DRY( 45, 70)   DRY( 45, 71)   DRY( 45, 72)   DRY( 45, 73)   DRY( 45, 74)   
    DRY( 45, 75)   DRY( 45, 76)   DRY( 45, 77)   DRY( 45, 78)   DRY( 45, 79)   
    DRY( 45, 80)   DRY( 45, 81)   DRY( 45, 82)   DRY( 45, 83)   DRY( 45, 84)   
    DRY( 45, 85)   DRY( 45, 86)   DRY( 45, 87)   DRY( 45, 88)   DRY( 45, 89)   
    DRY( 45, 90)   DRY( 45, 91)   DRY( 45, 92)   DRY( 45, 93)   DRY( 45, 94)   
    DRY( 45, 95)   DRY( 45, 96)   DRY( 45, 97)   DRY( 45, 98)   DRY( 45, 99)   
    DRY( 45,100)   DRY( 45,101)   DRY( 45,102)   DRY( 45,103)   DRY( 45,104)   
    DRY( 45,105)   DRY( 45,106)   DRY( 45,107)   DRY( 45,108)   DRY( 45,109)   
    DRY( 45,110)   DRY( 45,111)   DRY( 45,112)   DRY( 45,113)   DRY( 45,114)   
    DRY( 45,115)   DRY( 45,116)   DRY( 45,117)   DRY( 45,118)   DRY( 45,119)   
    DRY( 45,120)   DRY( 45,121)   DRY( 45,122)   DRY( 45,123)   DRY( 45,124)   
    DRY( 45,125)   DRY( 45,126)   DRY( 45,127)   DRY( 45,128)   DRY( 45,129)   
    DRY( 45,130)   DRY( 45,131)   DRY( 45,132)   DRY( 45,133)   DRY( 45,134)   
    DRY( 45,135)   DRY( 45,136)   DRY( 45,137)   DRY( 45,138)   DRY( 45,139)   
    DRY( 45,140)   DRY( 45,141)   DRY( 45,142)   DRY( 45,143)   DRY( 45,144)   
    DRY( 45,145)   DRY( 45,146)   DRY( 45,147)   DRY( 45,148)   DRY( 45,149)   
    DRY( 45,150)   DRY( 45,151)   DRY( 45,152)   DRY( 45,153)   DRY( 45,154)   
    DRY( 45,155)   DRY( 45,156)   DRY( 45,157)   DRY( 45,158)   DRY( 45,159)   
    DRY( 45,160)   DRY( 45,161)   DRY( 45,162)   DRY( 45,163)   DRY( 45,164)   
    DRY( 45,165)   DRY( 45,166)   DRY( 45,167)   DRY( 45,168)   DRY( 45,169)   
    DRY( 45,170)   DRY( 45,171)   DRY( 45,172)   DRY( 45,173)   DRY( 45,174)   
    DRY( 45,175)   DRY( 45,176)   DRY( 45,177)   DRY( 45,178)   DRY( 45,179)   
    DRY( 45,180)   DRY( 45,181)   DRY( 45,182)   DRY( 45,183)   DRY( 45,184)   
    DRY( 45,185)   DRY( 45,186)   DRY( 45,187)   DRY( 45,188)   DRY( 45,189)   
    DRY( 45,190)   DRY( 45,191)   DRY( 45,192)   DRY( 45,193)   DRY( 45,194)   
    DRY( 45,195)   DRY( 45,196)   DRY( 45,197)   DRY( 45,198)   DRY( 45,199)   
    DRY( 45,200)   DRY( 45,201)   DRY( 45,202)   DRY( 45,203)   DRY( 45,204)   
    DRY( 45,205)   DRY( 45,206)   DRY( 45,207)   DRY( 45,208)   DRY( 45,209)   
    DRY( 45,210)   DRY( 45,211)   DRY( 45,212)   DRY( 45,213)   DRY( 45,214)   
    DRY( 45,215)   DRY( 45,216)   DRY( 45,217)   DRY( 45,218)   DRY( 45,219)   
    DRY( 45,220)   DRY( 46,  1)   DRY( 46,  2)   DRY( 46,  3)   DRY( 46,  4)   
    DRY( 46,  5)   DRY( 46,  6)   DRY( 46,  7)   DRY( 46,  8)   DRY( 46,  9)   
    DRY( 46, 10)   DRY( 46, 11)   DRY( 46, 12)   DRY( 46, 13)   DRY( 46, 14)   
    DRY( 46, 15)   DRY( 46, 16)   DRY( 46, 17)   DRY( 46, 18)   DRY( 46, 19)   
    DRY( 46, 20)   DRY( 46, 21)   DRY( 46, 22)   DRY( 46, 23)   DRY( 46, 24)   
    DRY( 46, 25)   DRY( 46, 26)   DRY( 46, 27)   DRY( 46, 28)   DRY( 46, 29)   
    DRY( 46, 30)   DRY( 46, 31)   DRY( 46, 32)   DRY( 46, 33)   DRY( 46, 34)   
    DRY( 46, 35)   DRY( 46, 36)   DRY( 46, 37)   DRY( 46, 38)   DRY( 46, 39)   
    DRY( 46, 40)   DRY( 46, 41)   DRY( 46, 42)   DRY( 46, 43)   DRY( 46, 44)   
    DRY( 46, 45)   DRY( 46, 46)   DRY( 46, 47)   DRY( 46, 48)   DRY( 46, 49)   
    DRY( 46, 50)   DRY( 46, 51)   DRY( 46, 52)   DRY( 46, 53)   DRY( 46, 54)   
    DRY( 46, 55)   DRY( 46, 56)   DRY( 46, 57)   DRY( 46, 58)   DRY( 46, 59)   
    DRY( 46, 60)   DRY( 46, 61)   DRY( 46, 62)   DRY( 46, 63)   DRY( 46, 64)   
    DRY( 46, 65)   DRY( 46, 66)   DRY( 46, 67)   DRY( 46, 68)   DRY( 46, 69)   
    DRY( 46, 70)   DRY( 46, 71)   DRY( 46, 72)   DRY( 46, 73)   DRY( 46, 74)   
    DRY( 46, 75)   DRY( 46, 76)   DRY( 46, 77)   DRY( 46, 78)   DRY( 46, 79)   
    DRY( 46, 80)   DRY( 46, 81)   DRY( 46, 82)   DRY( 46, 83)   DRY( 46, 84)   
    DRY( 46, 85)   DRY( 46, 86)   DRY( 46, 87)   DRY( 46, 88)   DRY( 46, 89)   
    DRY( 46, 90)   DRY( 46, 91)   DRY( 46, 92)   DRY( 46, 93)   DRY( 46, 94)   
    DRY( 46, 95)   DRY( 46, 96)   DRY( 46, 97)   DRY( 46, 98)   DRY( 46, 99)   
    DRY( 46,100)   DRY( 46,101)   DRY( 46,102)   DRY( 46,103)   DRY( 46,104)   
    DRY( 46,105)   DRY( 46,106)   DRY( 46,107)   DRY( 46,108)   DRY( 46,109)   
    DRY( 46,110)   DRY( 46,111)   DRY( 46,112)   DRY( 46,113)   DRY( 46,114)   
    DRY( 46,115)   DRY( 46,116)   DRY( 46,117)   DRY( 46,118)   DRY( 46,119)   
    DRY( 46,120)   DRY( 46,121)   DRY( 46,122)   DRY( 46,123)   DRY( 46,124)   
    DRY( 46,125)   DRY( 46,126)   DRY( 46,127)   DRY( 46,128)   DRY( 46,129)   
    DRY( 46,130)   DRY( 46,131)   DRY( 46,132)   DRY( 46,133)   DRY( 46,134)   
    DRY( 46,135)   DRY( 46,136)   DRY( 46,137)   DRY( 46,138)   DRY( 46,139)   
    DRY( 46,140)   DRY( 46,141)   DRY( 46,142)   DRY( 46,143)   DRY( 46,144)   
    DRY( 46,145)   DRY( 46,146)   DRY( 46,147)   DRY( 46,148)   DRY( 46,149)   
    DRY( 46,150)   DRY( 46,151)   DRY( 46,152)   DRY( 46,153)   DRY( 46,154)   
    DRY( 46,155)   DRY( 46,156)   DRY( 46,157)   DRY( 46,158)   DRY( 46,159)   
    DRY( 46,160)   DRY( 46,161)   DRY( 46,162)   DRY( 46,163)   DRY( 46,164)   
    DRY( 46,165)   DRY( 46,166)   DRY( 46,167)   DRY( 46,168)   DRY( 46,169)   
    DRY( 46,170)   DRY( 46,171)   DRY( 46,172)   DRY( 46,173)   DRY( 46,174)   
    DRY( 46,175)   DRY( 46,176)   DRY( 46,177)   DRY( 46,178)   DRY( 46,179)   
    DRY( 46,180)   DRY( 46,181)   DRY( 46,182)   DRY( 46,183)   DRY( 46,184)   
    DRY( 46,185)   DRY( 46,186)   DRY( 46,187)   DRY( 46,188)   DRY( 46,189)   
    DRY( 46,190)   DRY( 46,191)   DRY( 46,192)   DRY( 46,193)   DRY( 46,194)   
    DRY( 46,195)   DRY( 46,196)   DRY( 46,197)   DRY( 46,198)   DRY( 46,199)   
    DRY( 46,200)   DRY( 46,201)   DRY( 46,202)   DRY( 46,203)   DRY( 46,204)   
    DRY( 46,205)   DRY( 46,206)   DRY( 46,207)   DRY( 46,208)   DRY( 46,209)   
    DRY( 46,210)   DRY( 46,211)   DRY( 46,212)   DRY( 46,213)   DRY( 46,214)   
    DRY( 46,215)   DRY( 46,216)   DRY( 46,217)   DRY( 46,218)   DRY( 46,219)   
    DRY( 46,220)   DRY( 47,  1)   DRY( 47,  2)   DRY( 47,  3)   DRY( 47,  4)   
    DRY( 47,  5)   DRY( 47,  6)   DRY( 47,  7)   DRY( 47,  8)   DRY( 47,  9)   
    DRY( 47, 10)   DRY( 47, 11)   DRY( 47, 12)   DRY( 47, 13)   DRY( 47, 14)   
    DRY( 47, 15)   DRY( 47, 16)   DRY( 47, 17)   DRY( 47, 18)   DRY( 47, 19)   
    DRY( 47, 20)   DRY( 47, 21)   DRY( 47, 22)   DRY( 47, 23)   DRY( 47, 24)   
    DRY( 47, 25)   DRY( 47, 26)   DRY( 47, 27)   DRY( 47, 28)   DRY( 47, 29)   
    DRY( 47, 30)   DRY( 47, 31)   DRY( 47, 32)   DRY( 47, 33)   DRY( 47, 34)   
    DRY( 47, 35)   DRY( 47, 36)   DRY( 47, 37)   DRY( 47, 38)   DRY( 47, 39)   
    DRY( 47, 40)   DRY( 47, 41)   DRY( 47, 42)   DRY( 47, 43)   DRY( 47, 44)   
    DRY( 47, 45)   DRY( 47, 46)   DRY( 47, 47)   DRY( 47, 48)   DRY( 47, 49)   
    DRY( 47, 50)   DRY( 47, 51)   DRY( 47, 52)   DRY( 47, 53)   DRY( 47, 54)   
    DRY( 47, 55)   DRY( 47, 56)   DRY( 47, 57)   DRY( 47, 58)   DRY( 47, 59)   
    DRY( 47, 60)   DRY( 47, 61)   DRY( 47, 62)   DRY( 47, 63)   DRY( 47, 64)   
    DRY( 47, 65)   DRY( 47, 66)   DRY( 47, 67)   DRY( 47, 68)   DRY( 47, 69)   
    DRY( 47, 70)   DRY( 47, 71)   DRY( 47, 72)   DRY( 47, 73)   DRY( 47, 74)   
    DRY( 47, 75)   DRY( 47, 76)   DRY( 47, 77)   DRY( 47, 78)   DRY( 47, 79)   
    DRY( 47, 80)   DRY( 47, 81)   DRY( 47, 82)   DRY( 47, 83)   DRY( 47, 84)   
    DRY( 47, 85)   DRY( 47, 86)   DRY( 47, 87)   DRY( 47, 88)   DRY( 47, 89)   
    DRY( 47, 90)   DRY( 47, 91)   DRY( 47, 92)   DRY( 47, 93)   DRY( 47, 94)   
    DRY( 47, 95)   DRY( 47, 96)   DRY( 47, 97)   DRY( 47, 98)   DRY( 47, 99)   
    DRY( 47,100)   DRY( 47,101)   DRY( 47,102)   DRY( 47,103)   DRY( 47,104)   
    DRY( 47,105)   DRY( 47,106)   DRY( 47,107)   DRY( 47,108)   DRY( 47,109)   
    DRY( 47,110)   DRY( 47,111)   DRY( 47,112)   DRY( 47,113)   DRY( 47,114)   
    DRY( 47,115)   DRY( 47,116)   DRY( 47,117)   DRY( 47,118)   DRY( 47,119)   
    DRY( 47,120)   DRY( 47,121)   DRY( 47,122)   DRY( 47,123)   DRY( 47,124)   
    DRY( 47,125)   DRY( 47,126)   DRY( 47,127)   DRY( 47,128)   DRY( 47,129)   
    DRY( 47,130)   DRY( 47,131)   DRY( 47,132)   DRY( 47,133)   DRY( 47,134)   
    DRY( 47,135)   DRY( 47,136)   DRY( 47,137)   DRY( 47,138)   DRY( 47,139)   
    DRY( 47,140)   DRY( 47,141)   DRY( 47,142)   DRY( 47,143)   DRY( 47,144)   
    DRY( 47,145)   DRY( 47,146)   DRY( 47,147)   DRY( 47,148)   DRY( 47,149)   
    DRY( 47,150)   DRY( 47,151)   DRY( 47,152)   DRY( 47,153)   DRY( 47,154)   
    DRY( 47,155)   DRY( 47,156)   DRY( 47,157)   DRY( 47,158)   DRY( 47,159)   
    DRY( 47,160)   DRY( 47,161)   DRY( 47,162)   DRY( 47,163)   DRY( 47,164)   
    DRY( 47,165)   DRY( 47,166)   DRY( 47,167)   DRY( 47,168)   DRY( 47,169)   
    DRY( 47,170)   DRY( 47,171)   DRY( 47,172)   DRY( 47,173)   DRY( 47,174)   
    DRY( 47,175)   DRY( 47,176)   DRY( 47,177)   DRY( 47,178)   DRY( 47,179)   
    DRY( 47,180)   DRY( 47,181)   DRY( 47,182)   DRY( 47,183)   DRY( 47,184)   
    DRY( 47,185)   DRY( 47,186)   DRY( 47,187)   DRY( 47,188)   DRY( 47,189)   
    DRY( 47,190)   DRY( 47,191)   DRY( 47,192)   DRY( 47,193)   DRY( 47,194)   
    DRY( 47,195)   DRY( 47,196)   DRY( 47,197)   DRY( 47,198)   DRY( 47,199)   
    DRY( 47,200)   DRY( 47,201)   DRY( 47,202)   DRY( 47,203)   DRY( 47,204)   
    DRY( 47,205)   DRY( 47,206)   DRY( 47,207)   DRY( 47,208)   DRY( 47,209)   
    DRY( 47,210)   DRY( 47,211)   DRY( 47,212)   DRY( 47,213)   DRY( 47,214)   
    DRY( 47,215)   DRY( 47,216)   DRY( 47,217)   DRY( 47,218)   DRY( 47,219)   
    DRY( 47,220)   DRY( 48,  1)   DRY( 48,  2)   DRY( 48,  3)   DRY( 48,  4)   
    DRY( 48,  5)   DRY( 48,  6)   DRY( 48,  7)   DRY( 48,  8)   DRY( 48,  9)   
    DRY( 48, 10)   DRY( 48, 11)   DRY( 48, 12)   DRY( 48, 13)   DRY( 48, 14)   
    DRY( 48, 15)   DRY( 48, 16)   DRY( 48, 17)   DRY( 48, 18)   DRY( 48, 19)   
    DRY( 48, 20)   DRY( 48, 21)   DRY( 48, 22)   DRY( 48, 23)   DRY( 48, 24)   
    DRY( 48, 25)   DRY( 48, 26)   DRY( 48, 27)   DRY( 48, 28)   DRY( 48, 29)   
    DRY( 48, 30)   DRY( 48, 31)   DRY( 48, 32)   DRY( 48, 33)   DRY( 48, 34)   
    DRY( 48, 35)   DRY( 48, 36)   DRY( 48, 37)   DRY( 48, 38)   DRY( 48, 39)   
    DRY( 48, 40)   DRY( 48, 41)   DRY( 48, 42)   DRY( 48, 43)   DRY( 48, 44)   
    DRY( 48, 45)   DRY( 48, 46)   DRY( 48, 47)   DRY( 48, 48)   DRY( 48, 49)   
    DRY( 48, 50)   DRY( 48, 51)   DRY( 48, 52)   DRY( 48, 53)   DRY( 48, 54)   
    DRY( 48, 55)   DRY( 48, 56)   DRY( 48, 57)   DRY( 48, 58)   DRY( 48, 59)   
    DRY( 48, 60)   DRY( 48, 61)   DRY( 48, 62)   DRY( 48, 63)   DRY( 48, 64)   
    DRY( 48, 65)   DRY( 48, 66)   DRY( 48, 67)   DRY( 48, 68)   DRY( 48, 69)   
    DRY( 48, 70)   DRY( 48, 71)   DRY( 48, 72)   DRY( 48, 73)   DRY( 48, 74)   
    DRY( 48, 75)   DRY( 48, 76)   DRY( 48, 77)   DRY( 48, 78)   DRY( 48, 79)   
    DRY( 48, 80)   DRY( 48, 81)   DRY( 48, 82)   DRY( 48, 83)   DRY( 48, 84)   
    DRY( 48, 85)   DRY( 48, 86)   DRY( 48, 87)   DRY( 48, 88)   DRY( 48, 89)   
    DRY( 48, 90)   DRY( 48, 91)   DRY( 48, 92)   DRY( 48, 93)   DRY( 48, 94)   
    DRY( 48, 95)   DRY( 48, 96)   DRY( 48, 97)   DRY( 48, 98)   DRY( 48, 99)   
    DRY( 48,100)   DRY( 48,101)   DRY( 48,102)   DRY( 48,103)   DRY( 48,104)   
    DRY( 48,105)   DRY( 48,106)   DRY( 48,107)   DRY( 48,108)   DRY( 48,109)   
    DRY( 48,110)   DRY( 48,111)   DRY( 48,112)   DRY( 48,113)   DRY( 48,114)   
    DRY( 48,115)   DRY( 48,116)   DRY( 48,117)   DRY( 48,118)   DRY( 48,119)   
    DRY( 48,120)   DRY( 48,121)   DRY( 48,122)   DRY( 48,123)   DRY( 48,124)   
    DRY( 48,125)   DRY( 48,126)   DRY( 48,127)   DRY( 48,128)   DRY( 48,129)   
    DRY( 48,130)   DRY( 48,131)   DRY( 48,132)   DRY( 48,133)   DRY( 48,134)   
    DRY( 48,135)   DRY( 48,136)   DRY( 48,137)   DRY( 48,138)   DRY( 48,139)   
    DRY( 48,140)   DRY( 48,141)   DRY( 48,142)   DRY( 48,143)   DRY( 48,144)   
    DRY( 48,145)   DRY( 48,146)   DRY( 48,147)   DRY( 48,148)   DRY( 48,149)   
    DRY( 48,150)   DRY( 48,151)   DRY( 48,152)   DRY( 48,153)   DRY( 48,154)   
    DRY( 48,155)   DRY( 48,156)   DRY( 48,157)   DRY( 48,158)   DRY( 48,159)   
    DRY( 48,160)   DRY( 48,161)   DRY( 48,162)   DRY( 48,163)   DRY( 48,164)   
    DRY( 48,165)   DRY( 48,166)   DRY( 48,167)   DRY( 48,168)   DRY( 48,169)   
    DRY( 48,170)   DRY( 48,171)   DRY( 48,172)   DRY( 48,173)   DRY( 48,174)   
    DRY( 48,175)   DRY( 48,176)   DRY( 48,177)   DRY( 48,178)   DRY( 48,179)   
    DRY( 48,180)   DRY( 48,181)   DRY( 48,182)   DRY( 48,183)   DRY( 48,184)   
    DRY( 48,185)   DRY( 48,186)   DRY( 48,187)   DRY( 48,188)   DRY( 48,189)   
    DRY( 48,190)   DRY( 48,191)   DRY( 48,192)   DRY( 48,193)   DRY( 48,194)   
    DRY( 48,195)   DRY( 48,196)   DRY( 48,197)   DRY( 48,198)   DRY( 48,199)   
    DRY( 48,200)   DRY( 48,201)   DRY( 48,202)   DRY( 48,203)   DRY( 48,204)   
    DRY( 48,205)   DRY( 48,206)   DRY( 48,207)   DRY( 48,208)   DRY( 48,209)   
    DRY( 48,210)   DRY( 48,211)   DRY( 48,212)   DRY( 48,213)   DRY( 48,214)   
    DRY( 48,215)   DRY( 48,216)   DRY( 48,217)   DRY( 48,218)   DRY( 48,219)   
    DRY( 48,220)   DRY( 49,  1)   DRY( 49,  2)   DRY( 49,  3)   DRY( 49,  4)   
    DRY( 49,  5)   DRY( 49,  6)   DRY( 49,  7)   DRY( 49,  8)   DRY( 49,  9)   
    DRY( 49, 10)   DRY( 49, 11)   DRY( 49, 12)   DRY( 49, 13)   DRY( 49, 14)   
    DRY( 49, 15)   DRY( 49, 16)   DRY( 49, 17)   DRY( 49, 18)   DRY( 49, 19)   
    DRY( 49, 20)   DRY( 49, 21)   DRY( 49, 22)   DRY( 49, 23)   DRY( 49, 24)   
    DRY( 49, 25)   DRY( 49, 26)   DRY( 49, 27)   DRY( 49, 28)   DRY( 49, 29)   
    DRY( 49, 30)   DRY( 49, 31)   DRY( 49, 32)   DRY( 49, 33)   DRY( 49, 34)   
    DRY( 49, 35)   DRY( 49, 36)   DRY( 49, 37)   DRY( 49, 38)   DRY( 49, 39)   
    DRY( 49, 40)   DRY( 49, 41)   DRY( 49, 42)   DRY( 49, 43)   DRY( 49, 44)   
    DRY( 49, 45)   DRY( 49, 46)   DRY( 49, 47)   DRY( 49, 48)   DRY( 49, 49)   
    DRY( 49, 50)   DRY( 49, 51)   DRY( 49, 52)   DRY( 49, 53)   DRY( 49, 54)   
    DRY( 49, 55)   DRY( 49, 56)   DRY( 49, 57)   DRY( 49, 58)   DRY( 49, 59)   
    DRY( 49, 60)   DRY( 49, 61)   DRY( 49, 62)   DRY( 49, 63)   DRY( 49, 64)   
    DRY( 49, 65)   DRY( 49, 66)   DRY( 49, 67)   DRY( 49, 68)   DRY( 49, 69)   
    DRY( 49, 70)   DRY( 49, 71)   DRY( 49, 72)   DRY( 49, 73)   DRY( 49, 74)   
    DRY( 49, 75)   DRY( 49, 76)   DRY( 49, 77)   DRY( 49, 78)   DRY( 49, 79)   
    DRY( 49, 80)   DRY( 49, 81)   DRY( 49, 82)   DRY( 49, 83)   DRY( 49, 84)   
    DRY( 49, 85)   DRY( 49, 86)   DRY( 49, 87)   DRY( 49, 88)   DRY( 49, 89)   
    DRY( 49, 90)   DRY( 49, 91)   DRY( 49, 92)   DRY( 49, 93)   DRY( 49, 94)   
    DRY( 49, 95)   DRY( 49, 96)   DRY( 49, 97)   DRY( 49, 98)   DRY( 49, 99)   
    DRY( 49,100)   DRY( 49,101)   DRY( 49,102)   DRY( 49,103)   DRY( 49,104)   
    DRY( 49,105)   DRY( 49,106)   DRY( 49,107)   DRY( 49,108)   DRY( 49,109)   
    DRY( 49,110)   DRY( 49,111)   DRY( 49,112)   DRY( 49,113)   DRY( 49,114)   
    DRY( 49,115)   DRY( 49,116)   DRY( 49,117)   DRY( 49,118)   DRY( 49,119)   
    DRY( 49,120)   DRY( 49,121)   DRY( 49,122)   DRY( 49,123)   DRY( 49,124)   
    DRY( 49,125)   DRY( 49,126)   DRY( 49,127)   DRY( 49,128)   DRY( 49,129)   
    DRY( 49,130)   DRY( 49,131)   DRY( 49,132)   DRY( 49,133)   DRY( 49,134)   
    DRY( 49,135)   DRY( 49,136)   DRY( 49,137)   DRY( 49,138)   DRY( 49,139)   
    DRY( 49,140)   DRY( 49,141)   DRY( 49,142)   DRY( 49,143)   DRY( 49,144)   
    DRY( 49,145)   DRY( 49,146)   DRY( 49,147)   DRY( 49,148)   DRY( 49,149)   
    DRY( 49,150)   DRY( 49,151)   DRY( 49,152)   DRY( 49,153)   DRY( 49,154)   
    DRY( 49,155)   DRY( 49,156)   DRY( 49,157)   DRY( 49,158)   DRY( 49,159)   
    DRY( 49,160)   DRY( 49,161)   DRY( 49,162)   DRY( 49,163)   DRY( 49,164)   
    DRY( 49,165)   DRY( 49,166)   DRY( 49,167)   DRY( 49,168)   DRY( 49,169)   
    DRY( 49,170)   DRY( 49,171)   DRY( 49,172)   DRY( 49,173)   DRY( 49,174)   
    DRY( 49,175)   DRY( 49,176)   DRY( 49,177)   DRY( 49,178)   DRY( 49,179)   
    DRY( 49,180)   DRY( 49,181)   DRY( 49,182)   DRY( 49,183)   DRY( 49,184)   
    DRY( 49,185)   DRY( 49,186)   DRY( 49,187)   DRY( 49,188)   DRY( 49,189)   
    DRY( 49,190)   DRY( 49,191)   DRY( 49,192)   DRY( 49,193)   DRY( 49,194)   
    DRY( 49,195)   DRY( 49,196)   DRY( 49,197)   DRY( 49,198)   DRY( 49,199)   
    DRY( 49,200)   DRY( 49,201)   DRY( 49,202)   DRY( 49,203)   DRY( 49,204)   
    DRY( 49,205)   DRY( 49,206)   DRY( 49,207)   DRY( 49,208)   DRY( 49,209)   
    DRY( 49,210)   DRY( 49,211)   DRY( 49,212)   DRY( 49,213)   DRY( 49,214)   
    DRY( 49,215)   DRY( 49,216)   DRY( 49,217)   DRY( 49,218)   DRY( 49,219)   
    DRY( 49,220)   DRY( 50,  1)   DRY( 50,  2)   DRY( 50,  3)   DRY( 50,  4)   
    DRY( 50,  5)   DRY( 50,  6)   DRY( 50,  7)   DRY( 50,  8)   DRY( 50,  9)   
    DRY( 50, 10)   DRY( 50, 11)   DRY( 50, 12)   DRY( 50, 13)   DRY( 50, 14)   
    DRY( 50, 15)   DRY( 50, 16)   DRY( 50, 17)   DRY( 50, 18)   DRY( 50, 19)   
    DRY( 50, 20)   DRY( 50, 21)   DRY( 50, 22)   DRY( 50, 23)   DRY( 50, 24)   
    DRY( 50, 25)   DRY( 50, 26)   DRY( 50, 27)   DRY( 50, 28)   DRY( 50, 29)   
    DRY( 50, 30)   DRY( 50, 31)   DRY( 50, 32)   DRY( 50, 33)   DRY( 50, 34)   
    DRY( 50, 35)   DRY( 50, 36)   DRY( 50, 37)   DRY( 50, 38)   DRY( 50, 39)   
    DRY( 50, 40)   DRY( 50, 41)   DRY( 50, 42)   DRY( 50, 43)   DRY( 50, 44)   
    DRY( 50, 45)   DRY( 50, 46)   DRY( 50, 47)   DRY( 50, 48)   DRY( 50, 49)   
    DRY( 50, 50)   DRY( 50, 51)   DRY( 50, 52)   DRY( 50, 53)   DRY( 50, 54)   
    DRY( 50, 55)   DRY( 50, 56)   DRY( 50, 57)   DRY( 50, 58)   DRY( 50, 59)   
    DRY( 50, 60)   DRY( 50, 61)   DRY( 50, 62)   DRY( 50, 63)   DRY( 50, 64)   
    DRY( 50, 65)   DRY( 50, 66)   DRY( 50, 67)   DRY( 50, 68)   DRY( 50, 69)   
    DRY( 50, 70)   DRY( 50, 71)   DRY( 50, 72)   DRY( 50, 73)   DRY( 50, 74)   
    DRY( 50, 75)   DRY( 50, 76)   DRY( 50, 77)   DRY( 50, 78)   DRY( 50, 79)   
    DRY( 50, 80)   DRY( 50, 81)   DRY( 50, 82)   DRY( 50, 83)   DRY( 50, 84)   
    DRY( 50, 85)   DRY( 50, 86)   DRY( 50, 87)   DRY( 50, 88)   DRY( 50, 89)   
    DRY( 50, 90)   DRY( 50, 91)   DRY( 50, 92)   DRY( 50, 93)   DRY( 50, 94)   
    DRY( 50, 95)   DRY( 50, 96)   DRY( 50, 97)   DRY( 50, 98)   DRY( 50, 99)   
    DRY( 50,100)   DRY( 50,101)   DRY( 50,102)   DRY( 50,103)   DRY( 50,104)   
    DRY( 50,105)   DRY( 50,106)   DRY( 50,107)   DRY( 50,108)   DRY( 50,109)   
    DRY( 50,110)   DRY( 50,111)   DRY( 50,112)   DRY( 50,113)   DRY( 50,114)   
    DRY( 50,115)   DRY( 50,116)   DRY( 50,117)   DRY( 50,118)   DRY( 50,119)   
    DRY( 50,120)   DRY( 50,121)   DRY( 50,122)   DRY( 50,123)   DRY( 50,124)   
    DRY( 50,125)   DRY( 50,126)   DRY( 50,127)   DRY( 50,128)   DRY( 50,129)   
    DRY( 50,130)   DRY( 50,131)   DRY( 50,132)   DRY( 50,133)   DRY( 50,134)   
    DRY( 50,135)   DRY( 50,136)   DRY( 50,137)   DRY( 50,138)   DRY( 50,139)   
    DRY( 50,140)   DRY( 50,141)   DRY( 50,142)   DRY( 50,143)   DRY( 50,144)   
    DRY( 50,145)   DRY( 50,146)   DRY( 50,147)   DRY( 50,148)   DRY( 50,149)   
    DRY( 50,150)   DRY( 50,151)   DRY( 50,152)   DRY( 50,153)   DRY( 50,154)   
    DRY( 50,155)   DRY( 50,156)   DRY( 50,157)   DRY( 50,158)   DRY( 50,159)   
    DRY( 50,160)   DRY( 50,161)   DRY( 50,162)   DRY( 50,163)   DRY( 50,164)   
    DRY( 50,165)   DRY( 50,166)   DRY( 50,167)   DRY( 50,168)   DRY( 50,169)   
    DRY( 50,170)   DRY( 50,171)   DRY( 50,172)   DRY( 50,173)   DRY( 50,174)   
    DRY( 50,175)   DRY( 50,176)   DRY( 50,177)   DRY( 50,178)   DRY( 50,179)   
    DRY( 50,180)   DRY( 50,181)   DRY( 50,182)   DRY( 50,183)   DRY( 50,184)   
    DRY( 50,185)   DRY( 50,186)   DRY( 50,187)   DRY( 50,188)   DRY( 50,189)   
    DRY( 50,190)   DRY( 50,191)   DRY( 50,192)   DRY( 50,193)   DRY( 50,194)   
    DRY( 50,195)   DRY( 50,196)   DRY( 50,197)   DRY( 50,198)   DRY( 50,199)   
    DRY( 50,200)   DRY( 50,201)   DRY( 50,202)   DRY( 50,203)   DRY( 50,204)   
    DRY( 50,205)   DRY( 50,206)   DRY( 50,207)   DRY( 50,208)   DRY( 50,209)   
    DRY( 50,210)   DRY( 50,211)   DRY( 50,212)   DRY( 50,213)   DRY( 50,214)   
    DRY( 50,215)   DRY( 50,216)   DRY( 50,217)   DRY( 50,218)   DRY( 50,219)   
    DRY( 50,220)   DRY( 51,  1)   DRY( 51,  2)   DRY( 51,  3)   DRY( 51,  4)   
    DRY( 51,  5)   DRY( 51,  6)   DRY( 51,  7)   DRY( 51,  8)   DRY( 51,  9)   
    DRY( 51, 10)   DRY( 51, 11)   DRY( 51, 12)   DRY( 51, 13)   DRY( 51, 14)   
    DRY( 51, 15)   DRY( 51, 16)   DRY( 51, 17)   DRY( 51, 18)   DRY( 51, 19)   
    DRY( 51, 20)   DRY( 51, 21)   DRY( 51, 22)   DRY( 51, 23)   DRY( 51, 24)   
    DRY( 51, 25)   DRY( 51, 26)   DRY( 51, 27)   DRY( 51, 28)   DRY( 51, 29)   
    DRY( 51, 30)   DRY( 51, 31)   DRY( 51, 32)   DRY( 51, 33)   DRY( 51, 34)   
    DRY( 51, 35)   DRY( 51, 36)   DRY( 51, 37)   DRY( 51, 38)   DRY( 51, 39)   
    DRY( 51, 40)   DRY( 51, 41)   DRY( 51, 42)   DRY( 51, 43)   DRY( 51, 44)   
    DRY( 51, 45)   DRY( 51, 46)   DRY( 51, 47)   DRY( 51, 48)   DRY( 51, 49)   
    DRY( 51, 50)   DRY( 51, 51)   DRY( 51, 52)   DRY( 51, 53)   DRY( 51, 54)   
    DRY( 51, 55)   DRY( 51, 56)   DRY( 51, 57)   DRY( 51, 58)   DRY( 51, 59)   
    DRY( 51, 60)   DRY( 51, 61)   DRY( 51, 62)   DRY( 51, 63)   DRY( 51, 64)   
    DRY( 51, 65)   DRY( 51, 66)   DRY( 51, 67)   DRY( 51, 68)   DRY( 51, 69)   
    DRY( 51, 70)   DRY( 51, 71)   DRY( 51, 72)   DRY( 51, 73)   DRY( 51, 74)   
    DRY( 51, 75)   DRY( 51, 76)   DRY( 51, 77)   DRY( 51, 78)   DRY( 51, 79)   
    DRY( 51, 80)   DRY( 51, 81)   DRY( 51, 82)   DRY( 51, 83)   DRY( 51, 84)   
    DRY( 51, 85)   DRY( 51, 86)   DRY( 51, 87)   DRY( 51, 88)   DRY( 51, 89)   
    DRY( 51, 90)   DRY( 51, 91)   DRY( 51, 92)   DRY( 51, 93)   DRY( 51, 94)   
    DRY( 51, 95)   DRY( 51, 96)   DRY( 51, 97)   DRY( 51, 98)   DRY( 51, 99)   
    DRY( 51,100)   DRY( 51,101)   DRY( 51,102)   DRY( 51,103)   DRY( 51,104)   
    DRY( 51,105)   DRY( 51,106)   DRY( 51,107)   DRY( 51,108)   DRY( 51,109)   
    DRY( 51,110)   DRY( 51,111)   DRY( 51,112)   DRY( 51,113)   DRY( 51,114)   
    DRY( 51,115)   DRY( 51,116)   DRY( 51,117)   DRY( 51,118)   DRY( 51,119)   
    DRY( 51,120)   DRY( 51,121)   DRY( 51,122)   DRY( 51,123)   DRY( 51,124)   
    DRY( 51,125)   DRY( 51,126)   DRY( 51,127)   DRY( 51,128)   DRY( 51,129)   
    DRY( 51,130)   DRY( 51,131)   DRY( 51,132)   DRY( 51,133)   DRY( 51,134)   
    DRY( 51,135)   DRY( 51,136)   DRY( 51,137)   DRY( 51,138)   DRY( 51,139)   
    DRY( 51,140)   DRY( 51,141)   DRY( 51,142)   DRY( 51,143)   DRY( 51,144)   
    DRY( 51,145)   DRY( 51,146)   DRY( 51,147)   DRY( 51,148)   DRY( 51,149)   
    DRY( 51,150)   DRY( 51,151)   DRY( 51,152)   DRY( 51,153)   DRY( 51,154)   
    DRY( 51,155)   DRY( 51,156)   DRY( 51,157)   DRY( 51,158)   DRY( 51,159)   
    DRY( 51,160)   DRY( 51,161)   DRY( 51,162)   DRY( 51,163)   DRY( 51,164)   
    DRY( 51,165)   DRY( 51,166)   DRY( 51,167)   DRY( 51,168)   DRY( 51,169)   
    DRY( 51,170)   DRY( 51,171)   DRY( 51,172)   DRY( 51,173)   DRY( 51,174)   
    DRY( 51,175)   DRY( 51,176)   DRY( 51,177)   DRY( 51,178)   DRY( 51,179)   
    DRY( 51,180)   DRY( 51,181)   DRY( 51,182)   DRY( 51,183)   DRY( 51,184)   
    DRY( 51,185)   DRY( 51,186)   DRY( 51,187)   DRY( 51,188)   DRY( 51,189)   
    DRY( 51,190)   DRY( 51,191)   DRY( 51,192)   DRY( 51,193)   DRY( 51,194)   
    DRY( 51,195)   DRY( 51,196)   DRY( 51,197)   DRY( 51,198)   DRY( 51,199)   
    DRY( 51,200)   DRY( 51,201)   DRY( 51,202)   DRY( 51,203)   DRY( 51,204)   
    DRY( 51,205)   DRY( 51,206)   DRY( 51,207)   DRY( 51,208)   DRY( 51,209)   
    DRY( 51,210)   DRY( 51,211)   DRY( 51,212)   DRY( 51,213)   DRY( 51,214)   
    DRY( 51,215)   DRY( 51,216)   DRY( 51,217)   DRY( 51,218)   DRY( 51,219)   
    DRY( 51,220)   DRY( 52,  1)   DRY( 52,  2)   DRY( 52,  3)   DRY( 52,  4)   
    DRY( 52,  5)   DRY( 52,  6)   DRY( 52,  7)   DRY( 52,  8)   DRY( 52,  9)   
    DRY( 52, 10)   DRY( 52, 11)   DRY( 52, 12)   DRY( 52, 13)   DRY( 52, 14)   
    DRY( 52, 15)   DRY( 52, 16)   DRY( 52, 17)   DRY( 52, 18)   DRY( 52, 19)   
    DRY( 52, 20)   DRY( 52, 21)   DRY( 52, 22)   DRY( 52, 23)   DRY( 52, 24)   
    DRY( 52, 25)   DRY( 52, 26)   DRY( 52, 27)   DRY( 52, 28)   DRY( 52, 29)   
    DRY( 52, 30)   DRY( 52, 31)   DRY( 52, 32)   DRY( 52, 33)   DRY( 52, 34)   
    DRY( 52, 35)   DRY( 52, 36)   DRY( 52, 37)   DRY( 52, 38)   DRY( 52, 39)   
    DRY( 52, 40)   DRY( 52, 41)   DRY( 52, 42)   DRY( 52, 43)   DRY( 52, 44)   
    DRY( 52, 45)   DRY( 52, 46)   DRY( 52, 47)   DRY( 52, 48)   DRY( 52, 49)   
    DRY( 52, 50)   DRY( 52, 51)   DRY( 52, 52)   DRY( 52, 53)   DRY( 52, 54)   
    DRY( 52, 55)   DRY( 52, 56)   DRY( 52, 57)   DRY( 52, 58)   DRY( 52, 59)   
    DRY( 52, 60)   DRY( 52, 61)   DRY( 52, 62)   DRY( 52, 63)   DRY( 52, 64)   
    DRY( 52, 65)   DRY( 52, 66)   DRY( 52, 67)   DRY( 52, 68)   DRY( 52, 69)   
    DRY( 52, 70)   DRY( 52, 71)   DRY( 52, 72)   DRY( 52, 73)   DRY( 52, 74)   
    DRY( 52, 75)   DRY( 52, 76)   DRY( 52, 77)   DRY( 52, 78)   DRY( 52, 79)   
    DRY( 52, 80)   DRY( 52, 81)   DRY( 52, 82)   DRY( 52, 83)   DRY( 52, 84)   
    DRY( 52, 85)   DRY( 52, 86)   DRY( 52, 87)   DRY( 52, 88)   DRY( 52, 89)   
    DRY( 52, 90)   DRY( 52, 91)   DRY( 52, 92)   DRY( 52, 93)   DRY( 52, 94)   
    DRY( 52, 95)   DRY( 52, 96)   DRY( 52, 97)   DRY( 52, 98)   DRY( 52, 99)   
    DRY( 52,100)   DRY( 52,101)   DRY( 52,102)   DRY( 52,103)   DRY( 52,104)   
    DRY( 52,105)   DRY( 52,106)   DRY( 52,107)   DRY( 52,108)   DRY( 52,109)   
    DRY( 52,110)   DRY( 52,111)   DRY( 52,112)   DRY( 52,113)   DRY( 52,114)   
    DRY( 52,115)   DRY( 52,116)   DRY( 52,117)   DRY( 52,118)   DRY( 52,119)   
    DRY( 52,120)   DRY( 52,121)   DRY( 52,122)   DRY( 52,123)   DRY( 52,124)   
    DRY( 52,125)   DRY( 52,126)   DRY( 52,127)   DRY( 52,128)   DRY( 52,129)   
    DRY( 52,130)   DRY( 52,131)   DRY( 52,132)   DRY( 52,133)   DRY( 52,134)   
    DRY( 52,135)   DRY( 52,136)   DRY( 52,137)   DRY( 52,138)   DRY( 52,139)   
    DRY( 52,140)   DRY( 52,141)   DRY( 52,142)   DRY( 52,143)   DRY( 52,144)   
    DRY( 52,145)   DRY( 52,146)   DRY( 52,147)   DRY( 52,148)   DRY( 52,149)   
    DRY( 52,150)   DRY( 52,151)   DRY( 52,152)   DRY( 52,153)   DRY( 52,154)   
    DRY( 52,155)   DRY( 52,156)   DRY( 52,157)   DRY( 52,158)   DRY( 52,159)   
    DRY( 52,160)   DRY( 52,161)   DRY( 52,162)   DRY( 52,163)   DRY( 52,164)   
    DRY( 52,165)   DRY( 52,166)   DRY( 52,167)   DRY( 52,168)   DRY( 52,169)   
    DRY( 52,170)   DRY( 52,171)   DRY( 52,172)   DRY( 52,173)   DRY( 52,174)   
    DRY( 52,175)   DRY( 52,176)   DRY( 52,177)   DRY( 52,178)   DRY( 52,179)   
    DRY( 52,180)   DRY( 52,181)   DRY( 52,182)   DRY( 52,183)   DRY( 52,184)   
    DRY( 52,185)   DRY( 52,186)   DRY( 52,187)   DRY( 52,188)   DRY( 52,189)   
    DRY( 52,190)   DRY( 52,191)   DRY( 52,192)   DRY( 52,193)   DRY( 52,194)   
    DRY( 52,195)   DRY( 52,196)   DRY( 52,197)   DRY( 52,198)   DRY( 52,199)   
    DRY( 52,200)   DRY( 52,201)   DRY( 52,202)   DRY( 52,203)   DRY( 52,204)   
    DRY( 52,205)   DRY( 52,206)   DRY( 52,207)   DRY( 52,208)   DRY( 52,209)   
    DRY( 52,210)   DRY( 52,211)   DRY( 52,212)   DRY( 52,213)   DRY( 52,214)   
    DRY( 52,215)   DRY( 52,216)   DRY( 52,217)   DRY( 52,218)   DRY( 52,219)   
    DRY( 52,220)   DRY( 53,  4)   DRY( 53,  5)   DRY( 53,  6)   DRY( 53,  7)   
    DRY( 53,  8)   DRY( 53,  9)   DRY( 53, 10)   DRY( 53, 11)   DRY( 53, 12)   
    DRY( 53, 13)   DRY( 53, 14)   DRY( 53, 15)   DRY( 53, 16)   DRY( 53, 19)   
    DRY( 53, 20)   DRY( 53, 21)   DRY( 53, 22)   DRY( 53, 23)   DRY( 53, 24)   
    DRY( 53, 25)   DRY( 53, 26)   DRY( 53, 27)   DRY( 53, 28)   DRY( 53, 29)   
    DRY( 53, 30)   DRY( 53, 31)   DRY( 53, 32)   DRY( 53, 33)   DRY( 53, 34)   
    DRY( 53, 35)   DRY( 53, 36)   DRY( 53, 37)   DRY( 53, 38)   DRY( 53, 39)   
    DRY( 53, 40)   DRY( 53, 41)   DRY( 53, 42)   DRY( 53, 43)   DRY( 53, 44)   
    DRY( 53, 45)   DRY( 53, 46)   DRY( 53, 47)   DRY( 53, 48)   DRY( 53, 49)   
    DRY( 53, 50)   DRY( 53, 51)   DRY( 53, 52)   DRY( 53, 53)   DRY( 53, 54)   
    DRY( 53, 55)   DRY( 53, 56)   DRY( 53, 57)   DRY( 53, 58)   DRY( 53, 59)   
    DRY( 53, 60)   DRY( 53, 61)   DRY( 53, 62)   DRY( 53, 63)   DRY( 53, 64)   
    DRY( 53, 65)   DRY( 53, 66)   DRY( 53, 67)   DRY( 53, 68)   DRY( 53, 69)   
    DRY( 53, 70)   DRY( 53, 71)   DRY( 53, 72)   DRY( 53, 73)   DRY( 53, 74)   
    DRY( 53, 75)   DRY( 53, 76)   DRY( 53, 77)   DRY( 53, 78)   DRY( 53, 79)   
    DRY( 53, 80)   DRY( 53, 81)   DRY( 53, 82)   DRY( 53, 83)   DRY( 53, 84)   
    DRY( 53, 85)   DRY( 53, 86)   DRY( 53, 87)   DRY( 53, 88)   DRY( 53, 89)   
    DRY( 53, 90)   DRY( 53, 91)   DRY( 53, 92)   DRY( 53, 93)   DRY( 53, 94)   
    DRY( 53, 95)   DRY( 53, 96)   DRY( 53, 97)   DRY( 53, 98)   DRY( 53, 99)   
    DRY( 53,100)   DRY( 53,101)   DRY( 53,102)   DRY( 53,103)   DRY( 53,104)   
    DRY( 53,105)   DRY( 53,106)   DRY( 53,107)   DRY( 53,108)   DRY( 53,109)   
    DRY( 53,110)   DRY( 53,111)   DRY( 53,112)   DRY( 53,113)   DRY( 53,114)   
    DRY( 53,115)   DRY( 53,116)   DRY( 53,117)   DRY( 53,118)   DRY( 53,119)   
    DRY( 53,120)   DRY( 53,121)   DRY( 53,122)   DRY( 53,123)   DRY( 53,124)   
    DRY( 53,125)   DRY( 53,126)   DRY( 53,127)   DRY( 53,128)   DRY( 53,129)   
    DRY( 53,130)   DRY( 53,131)   DRY( 53,132)   DRY( 53,133)   DRY( 53,134)   
    DRY( 53,135)   DRY( 53,136)   DRY( 53,137)   DRY( 53,138)   DRY( 53,139)   
    DRY( 53,140)   DRY( 53,141)   DRY( 53,142)   DRY( 53,143)   DRY( 53,144)   
    DRY( 53,145)   DRY( 53,146)   DRY( 53,147)   DRY( 53,148)   DRY( 53,149)   
    DRY( 53,150)   DRY( 53,151)   DRY( 53,152)   DRY( 53,153)   DRY( 53,154)   
    DRY( 53,155)   DRY( 53,156)   DRY( 53,157)   DRY( 53,158)   DRY( 53,159)   
    DRY( 53,160)   DRY( 53,161)   DRY( 53,162)   DRY( 53,163)   DRY( 53,164)   
    DRY( 53,165)   DRY( 53,166)   DRY( 53,167)   DRY( 53,168)   DRY( 53,169)   
    DRY( 53,170)   DRY( 53,171)   DRY( 53,172)   DRY( 53,173)   DRY( 53,174)   
    DRY( 53,175)   DRY( 53,176)   DRY( 53,177)   DRY( 53,178)   DRY( 53,179)   
    DRY( 53,180)   DRY( 53,181)   DRY( 53,182)   DRY( 53,183)   DRY( 53,184)   
    DRY( 53,185)   DRY( 53,186)   DRY( 53,187)   DRY( 53,188)   DRY( 53,189)   
    DRY( 53,190)   DRY( 53,191)   DRY( 53,192)   DRY( 53,193)   DRY( 53,194)   
    DRY( 53,195)   DRY( 53,196)   DRY( 53,197)   DRY( 53,198)   DRY( 53,199)   
    DRY( 53,200)   DRY( 53,201)   DRY( 53,202)   DRY( 53,203)   DRY( 53,204)   
    DRY( 53,205)   DRY( 53,206)   DRY( 53,207)   DRY( 53,208)   DRY( 53,209)   
    DRY( 53,210)   DRY( 53,211)   DRY( 53,212)   DRY( 53,213)   DRY( 53,214)   
    DRY( 53,215)   DRY( 53,216)   DRY( 53,217)   DRY( 53,218)   DRY( 53,219)   
    DRY( 53,220)   DRY( 54,  6)   DRY( 54,  7)   DRY( 54,  8)   DRY( 54,  9)   
    DRY( 54, 10)   DRY( 54, 11)   DRY( 54, 12)   DRY( 54, 13)   DRY( 54, 14)   
    DRY( 54, 23)   DRY( 54, 24)   DRY( 54, 25)   DRY( 54, 26)   DRY( 54, 27)   
    DRY( 54, 28)   DRY( 54, 29)   DRY( 54, 30)   DRY( 54, 31)   DRY( 54, 32)   
    DRY( 54, 33)   DRY( 54, 34)   DRY( 54, 35)   DRY( 54, 36)   DRY( 54, 37)   
    DRY( 54, 38)   DRY( 54, 39)   DRY( 54, 40)   DRY( 54, 41)   DRY( 54, 42)   
    DRY( 54, 43)   DRY( 54, 44)   DRY( 54, 45)   DRY( 54, 46)   DRY( 54, 47)   
    DRY( 54, 48)   DRY( 54, 49)   DRY( 54, 50)   DRY( 54, 51)   DRY( 54, 52)   
    DRY( 54, 53)   DRY( 54, 54)   DRY( 54, 55)   DRY( 54, 56)   DRY( 54, 57)   
    DRY( 54, 58)   DRY( 54, 59)   DRY( 54, 60)   DRY( 54, 61)   DRY( 54, 62)   
    DRY( 54, 63)   DRY( 54, 64)   DRY( 54, 65)   DRY( 54, 66)   DRY( 54, 67)   
    DRY( 54, 68)   DRY( 54, 69)   DRY( 54, 70)   DRY( 54, 71)   DRY( 54, 72)   
    DRY( 54, 73)   DRY( 54, 74)   DRY( 54, 75)   DRY( 54, 76)   DRY( 54, 77)   
    DRY( 54, 78)   DRY( 54, 79)   DRY( 54, 80)   DRY( 54, 81)   DRY( 54, 82)   
    DRY( 54, 83)   DRY( 54, 84)   DRY( 54, 85)   DRY( 54, 86)   DRY( 54, 87)   
    DRY( 54, 88)   DRY( 54, 89)   DRY( 54, 90)   DRY( 54, 91)   DRY( 54, 92)   
    DRY( 54, 93)   DRY( 54, 94)   DRY( 54, 95)   DRY( 54, 96)   DRY( 54, 97)   
    DRY( 54, 98)   DRY( 54, 99)   DRY( 54,100)   DRY( 54,101)   DRY( 54,102)   
    DRY( 54,103)   DRY( 54,104)   DRY( 54,105)   DRY( 54,106)   DRY( 54,107)   
    DRY( 54,108)   DRY( 54,109)   DRY( 54,110)   DRY( 54,111)   DRY( 54,112)   
    DRY( 54,113)   DRY( 54,114)   DRY( 54,115)   DRY( 54,116)   DRY( 54,117)   
    DRY( 54,118)   DRY( 54,119)   DRY( 54,120)   DRY( 54,121)   DRY( 54,122)   
    DRY( 54,123)   DRY( 54,124)   DRY( 54,125)   DRY( 54,126)   DRY( 54,127)   
    DRY( 54,128)   DRY( 54,129)   DRY( 54,130)   DRY( 54,131)   DRY( 54,132)   
    DRY( 54,133)   DRY( 54,134)   DRY( 54,135)   DRY( 54,136)   DRY( 54,137)   
    DRY( 54,138)   DRY( 54,139)   DRY( 54,140)   DRY( 54,141)   DRY( 54,142)   
    DRY( 54,143)   DRY( 54,144)   DRY( 54,145)   DRY( 54,146)   DRY( 54,147)   
    DRY( 54,148)   DRY( 54,149)   DRY( 54,150)   DRY( 54,151)   DRY( 54,152)   
    DRY( 54,153)   DRY( 54,154)   DRY( 54,155)   DRY( 54,156)   DRY( 54,157)   
    DRY( 54,158)   DRY( 54,159)   DRY( 54,160)   DRY( 54,161)   DRY( 54,162)   
    DRY( 54,163)   DRY( 54,164)   DRY( 54,165)   DRY( 54,166)   DRY( 54,167)   
    DRY( 54,168)   DRY( 54,169)   DRY( 54,170)   DRY( 54,171)   DRY( 54,172)   
    DRY( 54,173)   DRY( 54,174)   DRY( 54,175)   DRY( 54,176)   DRY( 54,177)   
    DRY( 54,178)   DRY( 54,179)   DRY( 54,180)   DRY( 54,181)   DRY( 54,182)   
    DRY( 54,183)   DRY( 54,184)   DRY( 54,185)   DRY( 54,186)   DRY( 54,187)   
    DRY( 54,188)   DRY( 54,189)   DRY( 54,190)   DRY( 54,191)   DRY( 54,192)   
    DRY( 54,193)   DRY( 54,194)   DRY( 54,195)   DRY( 54,196)   DRY( 54,197)   
    DRY( 54,198)   DRY( 54,199)   DRY( 54,200)   DRY( 54,201)   DRY( 54,202)   
    DRY( 54,203)   DRY( 54,204)   DRY( 54,205)   DRY( 54,206)   DRY( 54,207)   
    DRY( 54,208)   DRY( 54,209)   DRY( 54,210)   DRY( 54,211)   DRY( 54,212)   
    DRY( 54,213)   DRY( 54,214)   DRY( 54,215)   DRY( 54,216)   DRY( 54,217)   
    DRY( 54,218)   DRY( 54,219)   DRY( 54,220)   DRY( 55,  8)   DRY( 55,  9)   
    DRY( 55, 10)   DRY( 55, 11)   DRY( 55, 12)   DRY( 55, 13)   DRY( 55, 14)   
    DRY( 55, 25)   DRY( 55, 26)   DRY( 55, 27)   DRY( 55, 28)   DRY( 55, 29)   
    DRY( 55, 30)   DRY( 55, 31)   DRY( 55, 32)   DRY( 55, 33)   DRY( 55, 34)   
    DRY( 55, 35)   DRY( 55, 36)   DRY( 55, 37)   DRY( 55, 38)   DRY( 55, 39)   
    DRY( 55, 40)   DRY( 55, 41)   DRY( 55, 42)   DRY( 55, 43)   DRY( 55, 44)   
    DRY( 55, 45)   DRY( 55, 46)   DRY( 55, 47)   DRY( 55, 48)   DRY( 55, 49)   
    DRY( 55, 50)   DRY( 55, 51)   DRY( 55, 52)   DRY( 55, 53)   DRY( 55, 54)   
    DRY( 55, 55)   DRY( 55, 56)   DRY( 55, 57)   DRY( 55, 58)   DRY( 55, 59)   
    DRY( 55, 60)   DRY( 55, 61)   DRY( 55, 62)   DRY( 55, 63)   DRY( 55, 64)   
    DRY( 55, 65)   DRY( 55, 66)   DRY( 55, 67)   DRY( 55, 68)   DRY( 55, 69)   
    DRY( 55, 70)   DRY( 55, 71)   DRY( 55, 72)   DRY( 55, 73)   DRY( 55, 74)   
    DRY( 55, 75)   DRY( 55, 76)   DRY( 55, 77)   DRY( 55, 78)   DRY( 55, 79)   
    DRY( 55, 80)   DRY( 55, 81)   DRY( 55, 82)   DRY( 55, 83)   DRY( 55, 84)   
    DRY( 55, 85)   DRY( 55, 86)   DRY( 55, 87)   DRY( 55, 88)   DRY( 55, 89)   
    DRY( 55, 90)   DRY( 55, 91)   DRY( 55, 92)   DRY( 55, 93)   DRY( 55, 94)   
    DRY( 55, 95)   DRY( 55, 96)   DRY( 55, 97)   DRY( 55, 98)   DRY( 55, 99)   
    DRY( 55,100)   DRY( 55,101)   DRY( 55,102)   DRY( 55,103)   DRY( 55,104)   
    DRY( 55,105)   DRY( 55,106)   DRY( 55,107)   DRY( 55,108)   DRY( 55,109)   
    DRY( 55,110)   DRY( 55,111)   DRY( 55,112)   DRY( 55,113)   DRY( 55,114)   
    DRY( 55,115)   DRY( 55,116)   DRY( 55,117)   DRY( 55,118)   DRY( 55,119)   
    DRY( 55,120)   DRY( 55,121)   DRY( 55,122)   DRY( 55,123)   DRY( 55,124)   
    DRY( 55,125)   DRY( 55,126)   DRY( 55,127)   DRY( 55,128)   DRY( 55,129)   
    DRY( 55,130)   DRY( 55,131)   DRY( 55,132)   DRY( 55,133)   DRY( 55,134)   
    DRY( 55,135)   DRY( 55,136)   DRY( 55,137)   DRY( 55,138)   DRY( 55,139)   
    DRY( 55,140)   DRY( 55,141)   DRY( 55,142)   DRY( 55,143)   DRY( 55,144)   
    DRY( 55,145)   DRY( 55,146)   DRY( 55,147)   DRY( 55,148)   DRY( 55,149)   
    DRY( 55,150)   DRY( 55,151)   DRY( 55,152)   DRY( 55,153)   DRY( 55,154)   
    DRY( 55,155)   DRY( 55,156)   DRY( 55,157)   DRY( 55,158)   DRY( 55,159)   
    DRY( 55,160)   DRY( 55,161)   DRY( 55,162)   DRY( 55,163)   DRY( 55,164)   
    DRY( 55,165)   DRY( 55,166)   DRY( 55,167)   DRY( 55,168)   DRY( 55,169)   
    DRY( 55,170)   DRY( 55,171)   DRY( 55,172)   DRY( 55,173)   DRY( 55,174)   
    DRY( 55,175)   DRY( 55,176)   DRY( 55,177)   DRY( 55,178)   DRY( 55,179)   
    DRY( 55,180)   DRY( 55,181)   DRY( 55,182)   DRY( 55,183)   DRY( 55,184)   
    DRY( 55,185)   DRY( 55,186)   DRY( 55,187)   DRY( 55,188)   DRY( 55,189)   
    DRY( 55,190)   DRY( 55,191)   DRY( 55,192)   DRY( 55,193)   DRY( 55,194)   
    DRY( 55,195)   DRY( 55,196)   DRY( 55,197)   DRY( 55,198)   DRY( 55,199)   
    DRY( 55,200)   DRY( 55,201)   DRY( 55,202)   DRY( 55,203)   DRY( 55,204)   
    DRY( 55,205)   DRY( 55,206)   DRY( 55,207)   DRY( 55,208)   DRY( 55,209)   
    DRY( 55,210)   DRY( 55,211)   DRY( 55,212)   DRY( 55,213)   DRY( 55,214)   
    DRY( 55,215)   DRY( 55,216)   DRY( 55,217)   DRY( 55,218)   DRY( 55,219)   
    DRY( 55,220)   DRY( 56, 10)   DRY( 56, 11)   DRY( 56, 12)   DRY( 56, 13)   
    DRY( 56, 27)   DRY( 56, 28)   DRY( 56, 29)   DRY( 56, 30)   DRY( 56, 31)   
    DRY( 56, 32)   DRY( 56, 33)   DRY( 56, 34)   DRY( 56, 35)   DRY( 56, 36)   
    DRY( 56, 37)   DRY( 56, 38)   DRY( 56, 39)   DRY( 56, 40)   DRY( 56, 41)   
    DRY( 56, 42)   DRY( 56, 43)   DRY( 56, 44)   DRY( 56, 45)   DRY( 56, 46)   
    DRY( 56, 47)   DRY( 56, 48)   DRY( 56, 49)   DRY( 56, 50)   DRY( 56, 51)   
    DRY( 56, 52)   DRY( 56, 53)   DRY( 56, 54)   DRY( 56, 55)   DRY( 56, 56)   
    DRY( 56, 57)   DRY( 56, 58)   DRY( 56, 59)   DRY( 56, 60)   DRY( 56, 61)   
    DRY( 56, 62)   DRY( 56, 63)   DRY( 56, 64)   DRY( 56, 65)   DRY( 56, 66)   
    DRY( 56, 67)   DRY( 56, 68)   DRY( 56, 69)   DRY( 56, 70)   DRY( 56, 71)   
    DRY( 56, 72)   DRY( 56, 73)   DRY( 56, 74)   DRY( 56, 75)   DRY( 56, 76)   
    DRY( 56, 77)   DRY( 56, 78)   DRY( 56, 79)   DRY( 56, 80)   DRY( 56, 81)   
    DRY( 56, 82)   DRY( 56, 83)   DRY( 56, 84)   DRY( 56, 85)   DRY( 56, 86)   
    DRY( 56, 87)   DRY( 56, 88)   DRY( 56, 89)   DRY( 56, 90)   DRY( 56, 91)   
    DRY( 56, 92)   DRY( 56, 93)   DRY( 56, 94)   DRY( 56, 95)   DRY( 56, 96)   
    DRY( 56, 97)   DRY( 56, 98)   DRY( 56, 99)   DRY( 56,100)   DRY( 56,101)   
    DRY( 56,102)   DRY( 56,103)   DRY( 56,104)   DRY( 56,105)   DRY( 56,106)   
    DRY( 56,107)   DRY( 56,108)   DRY( 56,109)   DRY( 56,110)   DRY( 56,111)   
    DRY( 56,112)   DRY( 56,113)   DRY( 56,114)   DRY( 56,115)   DRY( 56,116)   
    DRY( 56,117)   DRY( 56,118)   DRY( 56,119)   DRY( 56,120)   DRY( 56,121)   
    DRY( 56,122)   DRY( 56,123)   DRY( 56,124)   DRY( 56,125)   DRY( 56,126)   
    DRY( 56,127)   DRY( 56,128)   DRY( 56,129)   DRY( 56,130)   DRY( 56,131)   
    DRY( 56,132)   DRY( 56,133)   DRY( 56,134)   DRY( 56,135)   DRY( 56,136)   
    DRY( 56,137)   DRY( 56,138)   DRY( 56,139)   DRY( 56,140)   DRY( 56,141)   
    DRY( 56,142)   DRY( 56,143)   DRY( 56,144)   DRY( 56,145)   DRY( 56,146)   
    DRY( 56,147)   DRY( 56,148)   DRY( 56,149)   DRY( 56,150)   DRY( 56,151)   
    DRY( 56,152)   DRY( 56,153)   DRY( 56,154)   DRY( 56,155)   DRY( 56,156)   
    DRY( 56,157)   DRY( 56,158)   DRY( 56,159)   DRY( 56,160)   DRY( 56,161)   
    DRY( 56,162)   DRY( 56,163)   DRY( 56,164)   DRY( 56,165)   DRY( 56,166)   
    DRY( 56,167)   DRY( 56,168)   DRY( 56,169)   DRY( 56,170)   DRY( 56,171)   
    DRY( 56,172)   DRY( 56,173)   DRY( 56,174)   DRY( 56,175)   DRY( 56,176)   
    DRY( 56,177)   DRY( 56,178)   DRY( 56,179)   DRY( 56,180)   DRY( 56,181)   
    DRY( 56,182)   DRY( 56,183)   DRY( 56,184)   DRY( 56,185)   DRY( 56,186)   
    DRY( 56,187)   DRY( 56,188)   DRY( 56,189)   DRY( 56,190)   DRY( 56,191)   
    DRY( 56,192)   DRY( 56,193)   DRY( 56,194)   DRY( 56,195)   DRY( 56,196)   
    DRY( 56,197)   DRY( 56,198)   DRY( 56,199)   DRY( 56,200)   DRY( 56,201)   
    DRY( 56,202)   DRY( 56,203)   DRY( 56,204)   DRY( 56,205)   DRY( 56,206)   
    DRY( 56,207)   DRY( 56,208)   DRY( 56,209)   DRY( 56,210)   DRY( 56,211)   
    DRY( 56,212)   DRY( 56,213)   DRY( 56,214)   DRY( 56,215)   DRY( 56,216)   
    DRY( 56,217)   DRY( 56,218)   DRY( 56,219)   DRY( 56,220)   

 CELL CONVERSIONS FOR ITER.=  3  LAYER= 19  STEP=  1  PERIOD=   1   (ROW,COL)
    DRY( 46,  1)   DRY( 46,  2)   DRY( 46,  3)   DRY( 46,  4)   DRY( 46,  5)   
    DRY( 46,  6)   DRY( 46,  7)   DRY( 46,  8)   DRY( 46,  9)   DRY( 46, 10)   
    DRY( 46, 11)   DRY( 46, 12)   DRY( 46, 13)   DRY( 46, 14)   DRY( 46, 15)   
    DRY( 46, 16)   DRY( 46, 17)   DRY( 46, 18)   DRY( 46, 19)   DRY( 46, 20)   
    DRY( 46, 21)   DRY( 46, 22)   DRY( 46, 23)   DRY( 46, 24)   DRY( 46, 25)   
    DRY( 46, 26)   DRY( 46, 27)   DRY( 46, 28)   DRY( 46, 29)   DRY( 46, 30)   
    DRY( 46, 31)   DRY( 46, 32)   DRY( 46, 33)   DRY( 46, 34)   DRY( 46, 35)   
    DRY( 46, 36)   DRY( 46, 37)   DRY( 46, 38)   DRY( 46, 39)   DRY( 46, 40)   
    DRY( 46, 41)   DRY( 46, 42)   DRY( 46, 43)   DRY( 46, 44)   DRY( 46, 45)   
    DRY( 46, 46)   DRY( 46, 47)   DRY( 46, 48)   DRY( 46, 49)   DRY( 46, 50)   
    DRY( 46, 51)   DRY( 46, 52)   DRY( 46, 53)   DRY( 46, 54)   DRY( 46, 55)   
    DRY( 46, 56)   DRY( 46, 57)   DRY( 46, 58)   DRY( 46, 59)   DRY( 46, 60)   
    DRY( 46, 61)   DRY( 46, 62)   DRY( 46, 63)   DRY( 46, 64)   DRY( 47,  1)   
    DRY( 47,  2)   DRY( 47,  3)   DRY( 47,  4)   DRY( 47,  5)   DRY( 47,  6)   
    DRY( 47,  7)   DRY( 47,  8)   DRY( 47,  9)   DRY( 47, 10)   DRY( 47, 11)   
    DRY( 47, 12)   DRY( 47, 13)   DRY( 47, 14)   DRY( 47, 15)   DRY( 47, 16)   
    DRY( 47, 17)   DRY( 47, 18)   DRY( 47, 19)   DRY( 47, 20)   DRY( 47, 21)   
    DRY( 47, 22)   DRY( 47, 23)   DRY( 47, 24)   DRY( 47, 25)   DRY( 47, 26)   
    DRY( 47, 27)   DRY( 47, 28)   DRY( 47, 29)   DRY( 47, 30)   DRY( 47, 31)   
    DRY( 47, 32)   DRY( 47, 33)   DRY( 47, 34)   DRY( 47, 35)   DRY( 47, 36)   
    DRY( 47, 37)   DRY( 47, 38)   DRY( 47, 39)   DRY( 47, 40)   DRY( 47, 41)   
    DRY( 47, 42)   DRY( 47, 43)   DRY( 47, 44)   DRY( 47, 45)   DRY( 47, 46)   
    DRY( 47, 47)   DRY( 47, 48)   DRY( 47, 49)   DRY( 47, 50)   DRY( 47, 51)   
    DRY( 47, 52)   DRY( 47, 53)   DRY( 47, 54)   DRY( 47, 55)   DRY( 47, 56)   
    DRY( 47, 57)   DRY( 47, 58)   DRY( 47, 59)   DRY( 47, 60)   DRY( 47, 61)   
    DRY( 47, 62)   DRY( 47, 63)   DRY( 47, 64)   DRY( 47, 65)   DRY( 47, 66)   
    DRY( 47, 67)   DRY( 47, 68)   DRY( 47, 69)   DRY( 47, 70)   DRY( 47, 71)   
    DRY( 47, 72)   DRY( 47, 73)   DRY( 47, 74)   DRY( 47, 75)   DRY( 47, 76)   
    DRY( 47, 77)   DRY( 47, 78)   DRY( 47, 79)   DRY( 47, 80)   DRY( 47, 81)   
    DRY( 47, 82)   DRY( 47, 83)   DRY( 47, 84)   DRY( 47, 85)   DRY( 47, 86)   
    DRY( 47, 87)   DRY( 47, 88)   DRY( 47, 89)   DRY( 47, 90)   DRY( 47, 91)   
    DRY( 47, 92)   DRY( 47, 93)   DRY( 47, 94)   DRY( 47, 95)   DRY( 47, 96)   
    DRY( 47, 97)   DRY( 47, 98)   DRY( 47, 99)   DRY( 47,100)   DRY( 47,101)   
    DRY( 47,102)   DRY( 47,103)   DRY( 47,104)   DRY( 47,105)   DRY( 47,106)   
    DRY( 47,107)   DRY( 47,108)   DRY( 47,109)   DRY( 47,110)   DRY( 47,111)   
    DRY( 47,112)   DRY( 47,113)   DRY( 47,114)   DRY( 47,115)   DRY( 47,116)   
    DRY( 47,117)   DRY( 47,118)   DRY( 47,119)   DRY( 47,120)   DRY( 47,121)   
    DRY( 47,122)   DRY( 47,136)   DRY( 47,137)   DRY( 47,138)   DRY( 47,139)   
    DRY( 47,140)   DRY( 47,141)   DRY( 47,142)   DRY( 47,143)   DRY( 47,144)   
    DRY( 47,145)   DRY( 47,146)   DRY( 48,  1)   DRY( 48,  2)   DRY( 48,  3)   
    DRY( 48,  4)   DRY( 48,  5)   DRY( 48,  6)   DRY( 48,  7)   DRY( 48,  8)   
    DRY( 48,  9)   DRY( 48, 10)   DRY( 48, 11)   DRY( 48, 12)   DRY( 48, 13)   
    DRY( 48, 14)   DRY( 48, 15)   DRY( 48, 16)   DRY( 48, 17)   DRY( 48, 18)   
    DRY( 48, 19)   DRY( 48, 20)   DRY( 48, 21)   DRY( 48, 22)   DRY( 48, 23)   
    DRY( 48, 24)   DRY( 48, 25)   DRY( 48, 26)   DRY( 48, 27)   DRY( 48, 28)   
    DRY( 48, 29)   DRY( 48, 30)   DRY( 48, 31)   DRY( 48, 32)   DRY( 48, 33)   
    DRY( 48, 34)   DRY( 48, 35)   DRY( 48, 36)   DRY( 48, 37)   DRY( 48, 38)   
    DRY( 48, 39)   DRY( 48, 40)   DRY( 48, 41)   DRY( 48, 42)   DRY( 48, 43)   
    DRY( 48, 44)   DRY( 48, 45)   DRY( 48, 46)   DRY( 48, 47)   DRY( 48, 48)   
    DRY( 48, 49)   DRY( 48, 50)   DRY( 48, 51)   DRY( 48, 52)   DRY( 48, 53)   
    DRY( 48, 54)   DRY( 48, 55)   DRY( 48, 56)   DRY( 48, 57)   DRY( 48, 58)   
    DRY( 48, 59)   DRY( 48, 60)   DRY( 48, 61)   DRY( 48, 62)   DRY( 48, 63)   
    DRY( 48, 64)   DRY( 48, 65)   DRY( 48, 66)   DRY( 48, 67)   DRY( 48, 68)   
    DRY( 48, 69)   DRY( 48, 70)   DRY( 48, 71)   DRY( 48, 72)   DRY( 48, 73)   
    DRY( 48, 74)   DRY( 48, 75)   DRY( 48, 76)   DRY( 48, 77)   DRY( 48, 78)   
    DRY( 48, 79)   DRY( 48, 80)   DRY( 48, 81)   DRY( 48, 82)   DRY( 48, 83)   
    DRY( 48, 84)   DRY( 48, 85)   DRY( 48, 86)   DRY( 48, 87)   DRY( 48, 88)   
    DRY( 48, 89)   DRY( 48, 90)   DRY( 48, 91)   DRY( 48, 92)   DRY( 48, 93)   
    DRY( 48, 94)   DRY( 48, 95)   DRY( 48, 96)   DRY( 48, 97)   DRY( 48, 98)   
    DRY( 48, 99)   DRY( 48,100)   DRY( 48,101)   DRY( 48,102)   DRY( 48,103)   
    DRY( 48,104)   DRY( 48,105)   DRY( 48,106)   DRY( 48,107)   DRY( 48,108)   
    DRY( 48,109)   DRY( 48,110)   DRY( 48,111)   DRY( 48,112)   DRY( 48,113)   
    DRY( 48,114)   DRY( 48,115)   DRY( 48,116)   DRY( 48,117)   DRY( 48,118)   
    DRY( 48,119)   DRY( 48,120)   DRY( 48,121)   DRY( 48,122)   DRY( 48,123)   
    DRY( 48,124)   DRY( 48,125)   DRY( 48,126)   DRY( 48,127)   DRY( 48,128)   
    DRY( 48,129)   DRY( 48,130)   DRY( 48,131)   DRY( 48,132)   DRY( 48,133)   
    DRY( 48,134)   DRY( 48,135)   DRY( 48,136)   DRY( 48,137)   DRY( 48,138)   
    DRY( 48,139)   DRY( 48,140)   DRY( 48,141)   DRY( 48,142)   DRY( 48,143)   
    DRY( 48,144)   DRY( 48,145)   DRY( 48,146)   DRY( 48,147)   DRY( 48,148)   
    DRY( 48,149)   DRY( 48,150)   DRY( 48,151)   DRY( 48,152)   DRY( 48,153)   
    DRY( 48,154)   DRY( 48,155)   DRY( 48,156)   DRY( 48,157)   DRY( 48,158)   
    DRY( 48,159)   DRY( 48,160)   DRY( 48,161)   DRY( 48,162)   DRY( 48,163)   
    DRY( 48,164)   DRY( 48,165)   DRY( 48,166)   DRY( 48,167)   DRY( 48,168)   
    DRY( 48,169)   DRY( 48,170)   DRY( 48,171)   DRY( 48,172)   DRY( 48,173)   
    DRY( 48,174)   DRY( 48,175)   DRY( 48,176)   DRY( 48,177)   DRY( 48,178)   
    DRY( 48,179)   DRY( 48,180)   DRY( 48,181)   DRY( 48,182)   DRY( 48,183)   
    DRY( 48,184)   DRY( 48,185)   DRY( 48,186)   DRY( 48,187)   DRY( 48,188)   
    DRY( 48,189)   DRY( 48,190)   DRY( 48,191)   DRY( 48,192)   DRY( 48,193)   
    DRY( 48,194)   DRY( 48,195)   DRY( 48,196)   DRY( 48,197)   DRY( 48,198)   
    DRY( 48,199)   DRY( 48,200)   DRY( 48,201)   DRY( 48,202)   DRY( 48,203)   
    DRY( 48,204)   DRY( 48,205)   DRY( 48,206)   DRY( 48,207)   DRY( 48,208)   
    DRY( 48,209)   DRY( 48,210)   DRY( 48,211)   DRY( 48,212)   DRY( 48,213)   
    DRY( 48,214)   DRY( 48,215)   DRY( 48,216)   DRY( 49,  1)   DRY( 49,  2)   
    DRY( 49,  3)   DRY( 49,  4)   DRY( 49,  5)   DRY( 49,  6)   DRY( 49,  7)   
    DRY( 49,  8)   DRY( 49,  9)   DRY( 49, 10)   DRY( 49, 11)   DRY( 49, 12)   
    DRY( 49, 13)   DRY( 49, 14)   DRY( 49, 15)   DRY( 49, 16)   DRY( 49, 17)   
    DRY( 49, 18)   DRY( 49, 19)   DRY( 49, 20)   DRY( 49, 21)   DRY( 49, 22)   
    DRY( 49, 23)   DRY( 49, 24)   DRY( 49, 25)   DRY( 49, 26)   DRY( 49, 27)   
    DRY( 49, 28)   DRY( 49, 29)   DRY( 49, 30)   DRY( 49, 31)   DRY( 49, 32)   
    DRY( 49, 33)   DRY( 49, 34)   DRY( 49, 35)   DRY( 49, 36)   DRY( 49, 37)   
    DRY( 49, 38)   DRY( 49, 39)   DRY( 49, 40)   DRY( 49, 41)   DRY( 49, 42)   
    DRY( 49, 43)   DRY( 49, 44)   DRY( 49, 45)   DRY( 49, 46)   DRY( 49, 47)   
    DRY( 49, 48)   DRY( 49, 49)   DRY( 49, 50)   DRY( 49, 51)   DRY( 49, 52)   
    DRY( 49, 53)   DRY( 49, 54)   DRY( 49, 55)   DRY( 49, 56)   DRY( 49, 57)   
    DRY( 49, 58)   DRY( 49, 59)   DRY( 49, 60)   DRY( 49, 61)   DRY( 49, 62)   
    DRY( 49, 63)   DRY( 49, 64)   DRY( 49, 65)   DRY( 49, 66)   DRY( 49, 67)   
    DRY( 49, 68)   DRY( 49, 69)   DRY( 49, 70)   DRY( 49, 71)   DRY( 49, 72)   
    DRY( 49, 73)   DRY( 49, 74)   DRY( 49, 75)   DRY( 49, 76)   DRY( 49, 77)   
    DRY( 49, 78)   DRY( 49, 79)   DRY( 49, 80)   DRY( 49, 81)   DRY( 49, 82)   
    DRY( 49, 83)   DRY( 49, 84)   DRY( 49, 85)   DRY( 49, 86)   DRY( 49, 87)   
    DRY( 49, 88)   DRY( 49, 89)   DRY( 49, 90)   DRY( 49, 91)   DRY( 49, 92)   
    DRY( 49, 93)   DRY( 49, 94)   DRY( 49, 95)   DRY( 49, 96)   DRY( 49, 97)   
    DRY( 49, 98)   DRY( 49, 99)   DRY( 49,100)   DRY( 49,101)   DRY( 49,102)   
    DRY( 49,103)   DRY( 49,104)   DRY( 49,105)   DRY( 49,106)   DRY( 49,107)   
    DRY( 49,108)   DRY( 49,109)   DRY( 49,110)   DRY( 49,111)   DRY( 49,112)   
    DRY( 49,113)   DRY( 49,114)   DRY( 49,115)   DRY( 49,116)   DRY( 49,117)   
    DRY( 49,118)   DRY( 49,119)   DRY( 49,120)   DRY( 49,121)   DRY( 49,122)   
    DRY( 49,123)   DRY( 49,124)   DRY( 49,125)   DRY( 49,126)   DRY( 49,127)   
    DRY( 49,128)   DRY( 49,129)   DRY( 49,130)   DRY( 49,131)   DRY( 49,132)   
    DRY( 49,133)   DRY( 49,134)   DRY( 49,135)   DRY( 49,136)   DRY( 49,137)   
    DRY( 49,138)   DRY( 49,139)   DRY( 49,140)   DRY( 49,141)   DRY( 49,142)   
    DRY( 49,143)   DRY( 49,144)   DRY( 49,145)   DRY( 49,146)   DRY( 49,147)   
    DRY( 49,148)   DRY( 49,149)   DRY( 49,150)   DRY( 49,151)   DRY( 49,152)   
    DRY( 49,153)   DRY( 49,154)   DRY( 49,155)   DRY( 49,156)   DRY( 49,157)   
    DRY( 49,158)   DRY( 49,159)   DRY( 49,160)   DRY( 49,161)   DRY( 49,162)   
    DRY( 49,163)   DRY( 49,164)   DRY( 49,165)   DRY( 49,166)   DRY( 49,167)   
    DRY( 49,168)   DRY( 49,169)   DRY( 49,170)   DRY( 49,171)   DRY( 49,172)   
    DRY( 49,173)   DRY( 49,174)   DRY( 49,175)   DRY( 49,176)   DRY( 49,177)   
    DRY( 49,178)   DRY( 49,179)   DRY( 49,180)   DRY( 49,181)   DRY( 49,182)   
    DRY( 49,183)   DRY( 49,184)   DRY( 49,185)   DRY( 49,186)   DRY( 49,187)   
    DRY( 49,188)   DRY( 49,189)   DRY( 49,190)   DRY( 49,191)   DRY( 49,192)   
    DRY( 49,193)   DRY( 49,194)   DRY( 49,195)   DRY( 49,196)   DRY( 49,197)   
    DRY( 49,198)   DRY( 49,199)   DRY( 49,200)   DRY( 49,201)   DRY( 49,202)   
    DRY( 49,203)   DRY( 49,204)   DRY( 49,205)   DRY( 49,206)   DRY( 49,207)   
    DRY( 49,208)   DRY( 49,209)   DRY( 49,210)   DRY( 49,211)   DRY( 49,212)   
    DRY( 49,213)   DRY( 49,214)   DRY( 49,215)   DRY( 49,216)   DRY( 49,217)   
    DRY( 49,218)   DRY( 49,219)   DRY( 49,220)   DRY( 50,  1)   DRY( 50,  2)   
    DRY( 50,  3)   DRY( 50,  4)   DRY( 50,  5)   DRY( 50,  6)   DRY( 50,  7)   
    DRY( 50,  8)   DRY( 50,  9)   DRY( 50, 10)   DRY( 50, 11)   DRY( 50, 12)   
    DRY( 50, 13)   DRY( 50, 14)   DRY( 50, 15)   DRY( 50, 16)   DRY( 50, 17)   
    DRY( 50, 18)   DRY( 50, 19)   DRY( 50, 20)   DRY( 50, 21)   DRY( 50, 22)   
    DRY( 50, 23)   DRY( 50, 24)   DRY( 50, 25)   DRY( 50, 26)   DRY( 50, 27)   
    DRY( 50, 28)   DRY( 50, 29)   DRY( 50, 30)   DRY( 50, 31)   DRY( 50, 32)   
    DRY( 50, 33)   DRY( 50, 34)   DRY( 50, 35)   DRY( 50, 36)   DRY( 50, 37)   
    DRY( 50, 38)   DRY( 50, 39)   DRY( 50, 40)   DRY( 50, 41)   DRY( 50, 42)   
    DRY( 50, 43)   DRY( 50, 44)   DRY( 50, 45)   DRY( 50, 46)   DRY( 50, 47)   
    DRY( 50, 48)   DRY( 50, 49)   DRY( 50, 50)   DRY( 50, 51)   DRY( 50, 52)   
    DRY( 50, 53)   DRY( 50, 54)   DRY( 50, 55)   DRY( 50, 56)   DRY( 50, 57)   
    DRY( 50, 58)   DRY( 50, 59)   DRY( 50, 60)   DRY( 50, 61)   DRY( 50, 62)   
    DRY( 50, 63)   DRY( 50, 64)   DRY( 50, 65)   DRY( 50, 66)   DRY( 50, 67)   
    DRY( 50, 68)   DRY( 50, 69)   DRY( 50, 70)   DRY( 50, 71)   DRY( 50, 72)   
    DRY( 50, 73)   DRY( 50, 74)   DRY( 50, 75)   DRY( 50, 76)   DRY( 50, 77)   
    DRY( 50, 78)   DRY( 50, 79)   DRY( 50, 80)   DRY( 50, 81)   DRY( 50, 82)   
    DRY( 50, 83)   DRY( 50, 84)   DRY( 50, 85)   DRY( 50, 86)   DRY( 50, 87)   
    DRY( 50, 88)   DRY( 50, 89)   DRY( 50, 90)   DRY( 50, 91)   DRY( 50, 92)   
    DRY( 50, 93)   DRY( 50, 94)   DRY( 50, 95)   DRY( 50, 96)   DRY( 50, 97)   
    DRY( 50, 98)   DRY( 50, 99)   DRY( 50,100)   DRY( 50,101)   DRY( 50,102)   
    DRY( 50,103)   DRY( 50,104)   DRY( 50,105)   DRY( 50,106)   DRY( 50,107)   
    DRY( 50,108)   DRY( 50,109)   DRY( 50,110)   DRY( 50,111)   DRY( 50,112)   
    DRY( 50,113)   DRY( 50,114)   DRY( 50,115)   DRY( 50,116)   DRY( 50,117)   
    DRY( 50,118)   DRY( 50,119)   DRY( 50,120)   DRY( 50,121)   DRY( 50,122)   
    DRY( 50,123)   DRY( 50,124)   DRY( 50,125)   DRY( 50,126)   DRY( 50,127)   
    DRY( 50,128)   DRY( 50,129)   DRY( 50,130)   DRY( 50,131)   DRY( 50,132)   
    DRY( 50,133)   DRY( 50,134)   DRY( 50,135)   DRY( 50,136)   DRY( 50,137)   
    DRY( 50,138)   DRY( 50,139)   DRY( 50,140)   DRY( 50,141)   DRY( 50,142)   
    DRY( 50,143)   DRY( 50,144)   DRY( 50,145)   DRY( 50,146)   DRY( 50,147)   
    DRY( 50,148)   DRY( 50,149)   DRY( 50,150)   DRY( 50,151)   DRY( 50,152)   
    DRY( 50,153)   DRY( 50,154)   DRY( 50,155)   DRY( 50,156)   DRY( 50,157)   
    DRY( 50,158)   DRY( 50,159)   DRY( 50,160)   DRY( 50,161)   DRY( 50,162)   
    DRY( 50,163)   DRY( 50,164)   DRY( 50,165)   DRY( 50,166)   DRY( 50,167)   
    DRY( 50,168)   DRY( 50,169)   DRY( 50,170)   DRY( 50,171)   DRY( 50,172)   
    DRY( 50,173)   DRY( 50,174)   DRY( 50,175)   DRY( 50,176)   DRY( 50,177)   
    DRY( 50,178)   DRY( 50,179)   DRY( 50,180)   DRY( 50,181)   DRY( 50,182)   
    DRY( 50,183)   DRY( 50,184)   DRY( 50,185)   DRY( 50,186)   DRY( 50,187)   
    DRY( 50,188)   DRY( 50,189)   DRY( 50,190)   DRY( 50,191)   DRY( 50,192)   
    DRY( 50,193)   DRY( 50,194)   DRY( 50,195)   DRY( 50,196)   DRY( 50,197)   
    DRY( 50,198)   DRY( 50,199)   DRY( 50,200)   DRY( 50,201)   DRY( 50,202)   
    DRY( 50,203)   DRY( 50,204)   DRY( 50,205)   DRY( 50,206)   DRY( 50,207)   
    DRY( 50,208)   DRY( 50,209)   DRY( 50,210)   DRY( 50,211)   DRY( 50,212)   
    DRY( 50,213)   DRY( 50,214)   DRY( 50,215)   DRY( 50,216)   DRY( 50,217)   
    DRY( 50,218)   DRY( 50,219)   DRY( 50,220)   DRY( 51,  1)   DRY( 51,  2)   
    DRY( 51,  3)   DRY( 51,  4)   DRY( 51,  5)   DRY( 51,  6)   DRY( 51,  7)   
    DRY( 51,  8)   DRY( 51,  9)   DRY( 51, 10)   DRY( 51, 11)   DRY( 51, 12)   
    DRY( 51, 13)   DRY( 51, 14)   DRY( 51, 15)   DRY( 51, 16)   DRY( 51, 17)   
    DRY( 51, 18)   DRY( 51, 19)   DRY( 51, 20)   DRY( 51, 21)   DRY( 51, 22)   
    DRY( 51, 23)   DRY( 51, 24)   DRY( 51, 25)   DRY( 51, 26)   DRY( 51, 27)   
    DRY( 51, 28)   DRY( 51, 29)   DRY( 51, 30)   DRY( 51, 31)   DRY( 51, 32)   
    DRY( 51, 33)   DRY( 51, 34)   DRY( 51, 35)   DRY( 51, 36)   DRY( 51, 37)   
    DRY( 51, 38)   DRY( 51, 39)   DRY( 51, 40)   DRY( 51, 41)   DRY( 51, 42)   
    DRY( 51, 43)   DRY( 51, 44)   DRY( 51, 45)   DRY( 51, 46)   DRY( 51, 47)   
    DRY( 51, 48)   DRY( 51, 49)   DRY( 51, 50)   DRY( 51, 51)   DRY( 51, 52)   
    DRY( 51, 53)   DRY( 51, 54)   DRY( 51, 55)   DRY( 51, 56)   DRY( 51, 57)   
    DRY( 51, 58)   DRY( 51, 59)   DRY( 51, 60)   DRY( 51, 61)   DRY( 51, 62)   
    DRY( 51, 63)   DRY( 51, 64)   DRY( 51, 65)   DRY( 51, 66)   DRY( 51, 67)   
    DRY( 51, 68)   DRY( 51, 69)   DRY( 51, 70)   DRY( 51, 71)   DRY( 51, 72)   
    DRY( 51, 73)   DRY( 51, 74)   DRY( 51, 75)   DRY( 51, 76)   DRY( 51, 77)   
    DRY( 51, 78)   DRY( 51, 79)   DRY( 51, 80)   DRY( 51, 81)   DRY( 51, 82)   
    DRY( 51, 83)   DRY( 51, 84)   DRY( 51, 85)   DRY( 51, 86)   DRY( 51, 87)   
    DRY( 51, 88)   DRY( 51, 89)   DRY( 51, 90)   DRY( 51, 91)   DRY( 51, 92)   
    DRY( 51, 93)   DRY( 51, 94)   DRY( 51, 95)   DRY( 51, 96)   DRY( 51, 97)   
    DRY( 51, 98)   DRY( 51, 99)   DRY( 51,100)   DRY( 51,101)   DRY( 51,102)   
    DRY( 51,103)   DRY( 51,104)   DRY( 51,105)   DRY( 51,106)   DRY( 51,107)   
    DRY( 51,108)   DRY( 51,109)   DRY( 51,110)   DRY( 51,111)   DRY( 51,112)   
    DRY( 51,113)   DRY( 51,114)   DRY( 51,115)   DRY( 51,116)   DRY( 51,117)   
    DRY( 51,118)   DRY( 51,119)   DRY( 51,120)   DRY( 51,121)   DRY( 51,122)   
    DRY( 51,123)   DRY( 51,124)   DRY( 51,125)   DRY( 51,126)   DRY( 51,127)   
    DRY( 51,128)   DRY( 51,129)   DRY( 51,130)   DRY( 51,131)   DRY( 51,132)   
    DRY( 51,133)   DRY( 51,134)   DRY( 51,135)   DRY( 51,136)   DRY( 51,137)   
    DRY( 51,138)   DRY( 51,139)   DRY( 51,140)   DRY( 51,141)   DRY( 51,142)   
    DRY( 51,143)   DRY( 51,144)   DRY( 51,145)   DRY( 51,146)   DRY( 51,147)   
    DRY( 51,148)   DRY( 51,149)   DRY( 51,150)   DRY( 51,151)   DRY( 51,152)   
    DRY( 51,153)   DRY( 51,154)   DRY( 51,155)   DRY( 51,156)   DRY( 51,157)   
    DRY( 51,158)   DRY( 51,159)   DRY( 51,160)   DRY( 51,161)   DRY( 51,162)   
    DRY( 51,163)   DRY( 51,164)   DRY( 51,165)   DRY( 51,166)   DRY( 51,167)   
    DRY( 51,168)   DRY( 51,169)   DRY( 51,170)   DRY( 51,171)   DRY( 51,172)   
    DRY( 51,173)   DRY( 51,174)   DRY( 51,175)   DRY( 51,176)   DRY( 51,177)   
    DRY( 51,178)   DRY( 51,179)   DRY( 51,180)   DRY( 51,181)   DRY( 51,182)   
    DRY( 51,183)   DRY( 51,184)   DRY( 51,185)   DRY( 51,186)   DRY( 51,187)   
    DRY( 51,188)   DRY( 51,189)   DRY( 51,190)   DRY( 51,191)   DRY( 51,192)   
    DRY( 51,193)   DRY( 51,194)   DRY( 51,195)   DRY( 51,196)   DRY( 51,197)   
    DRY( 51,198)   DRY( 51,199)   DRY( 51,200)   DRY( 51,201)   DRY( 51,202)   
    DRY( 51,203)   DRY( 51,204)   DRY( 51,205)   DRY( 51,206)   DRY( 51,207)   
    DRY( 51,208)   DRY( 51,209)   DRY( 51,210)   DRY( 51,211)   DRY( 51,212)   
    DRY( 51,213)   DRY( 51,214)   DRY( 51,215)   DRY( 51,216)   DRY( 51,217)   
    DRY( 51,218)   DRY( 51,219)   DRY( 51,220)   DRY( 52,  1)   DRY( 52,  2)   
    DRY( 52,  3)   DRY( 52,  4)   DRY( 52,  5)   DRY( 52,  6)   DRY( 52,  7)   
    DRY( 52,  8)   DRY( 52,  9)   DRY( 52, 10)   DRY( 52, 11)   DRY( 52, 12)   
    DRY( 52, 13)   DRY( 52, 14)   DRY( 52, 15)   DRY( 52, 16)   DRY( 52, 17)   
    DRY( 52, 18)   DRY( 52, 19)   DRY( 52, 20)   DRY( 52, 21)   DRY( 52, 22)   
    DRY( 52, 23)   DRY( 52, 24)   DRY( 52, 25)   DRY( 52, 26)   DRY( 52, 27)   
    DRY( 52, 28)   DRY( 52, 29)   DRY( 52, 30)   DRY( 52, 31)   DRY( 52, 32)   
    DRY( 52, 33)   DRY( 52, 34)   DRY( 52, 35)   DRY( 52, 36)   DRY( 52, 37)   
    DRY( 52, 38)   DRY( 52, 39)   DRY( 52, 40)   DRY( 52, 41)   DRY( 52, 42)   
    DRY( 52, 43)   DRY( 52, 44)   DRY( 52, 45)   DRY( 52, 46)   DRY( 52, 47)   
    DRY( 52, 48)   DRY( 52, 49)   DRY( 52, 50)   DRY( 52, 51)   DRY( 52, 52)   
    DRY( 52, 53)   DRY( 52, 54)   DRY( 52, 55)   DRY( 52, 56)   DRY( 52, 57)   
    DRY( 52, 58)   DRY( 52, 59)   DRY( 52, 60)   DRY( 52, 61)   DRY( 52, 62)   
    DRY( 52, 63)   DRY( 52, 64)   DRY( 52, 65)   DRY( 52, 66)   DRY( 52, 67)   
    DRY( 52, 68)   DRY( 52, 69)   DRY( 52, 70)   DRY( 52, 71)   DRY( 52, 72)   
    DRY( 52, 73)   DRY( 52, 74)   DRY( 52, 75)   DRY( 52, 76)   DRY( 52, 77)   
    DRY( 52, 78)   DRY( 52, 79)   DRY( 52, 80)   DRY( 52, 81)   DRY( 52, 82)   
    DRY( 52, 83)   DRY( 52, 84)   DRY( 52, 85)   DRY( 52, 86)   DRY( 52, 87)   
    DRY( 52, 88)   DRY( 52, 89)   DRY( 52, 90)   DRY( 52, 91)   DRY( 52, 92)   
    DRY( 52, 93)   DRY( 52, 94)   DRY( 52, 95)   DRY( 52, 96)   DRY( 52, 97)   
    DRY( 52, 98)   DRY( 52, 99)   DRY( 52,100)   DRY( 52,101)   DRY( 52,102)   
    DRY( 52,103)   DRY( 52,104)   DRY( 52,105)   DRY( 52,106)   DRY( 52,107)   
    DRY( 52,108)   DRY( 52,109)   DRY( 52,110)   DRY( 52,111)   DRY( 52,112)   
    DRY( 52,113)   DRY( 52,114)   DRY( 52,115)   DRY( 52,116)   DRY( 52,117)   
    DRY( 52,118)   DRY( 52,119)   DRY( 52,120)   DRY( 52,121)   DRY( 52,122)   
    DRY( 52,123)   DRY( 52,124)   DRY( 52,125)   DRY( 52,126)   DRY( 52,127)   
    DRY( 52,128)   DRY( 52,129)   DRY( 52,130)   DRY( 52,131)   DRY( 52,132)   
    DRY( 52,133)   DRY( 52,134)   DRY( 52,135)   DRY( 52,136)   DRY( 52,137)   
    DRY( 52,138)   DRY( 52,139)   DRY( 52,140)   DRY( 52,141)   DRY( 52,142)   
    DRY( 52,143)   DRY( 52,144)   DRY( 52,145)   DRY( 52,146)   DRY( 52,147)   
    DRY( 52,148)   DRY( 52,149)   DRY( 52,150)   DRY( 52,151)   DRY( 52,152)   
    DRY( 52,153)   DRY( 52,154)   DRY( 52,155)   DRY( 52,156)   DRY( 52,157)   
    DRY( 52,158)   DRY( 52,159)   DRY( 52,160)   DRY( 52,161)   DRY( 52,162)   
    DRY( 52,163)   DRY( 52,164)   DRY( 52,165)   DRY( 52,166)   DRY( 52,167)   
    DRY( 52,168)   DRY( 52,169)   DRY( 52,170)   DRY( 52,171)   DRY( 52,172)   
    DRY( 52,173)   DRY( 52,174)   DRY( 52,175)   DRY( 52,176)   DRY( 52,177)   
    DRY( 52,178)   DRY( 52,179)   DRY( 52,180)   DRY( 52,181)   DRY( 52,182)   
    DRY( 52,183)   DRY( 52,184)   DRY( 52,185)   DRY( 52,186)   DRY( 52,187)   
    DRY( 52,188)   DRY( 52,189)   DRY( 52,190)   DRY( 52,191)   DRY( 52,192)   
    DRY( 52,193)   DRY( 52,194)   DRY( 52,195)   DRY( 52,196)   DRY( 52,197)   
    DRY( 52,198)   DRY( 52,199)   DRY( 52,200)   DRY( 52,201)   DRY( 52,202)   
    DRY( 52,203)   DRY( 52,204)   DRY( 52,205)   DRY( 52,206)   DRY( 52,207)   
    DRY( 52,208)   DRY( 52,209)   DRY( 52,210)   DRY( 52,211)   DRY( 52,212)   
    DRY( 52,213)   DRY( 52,214)   DRY( 52,215)   DRY( 52,216)   DRY( 52,217)   
    DRY( 52,218)   DRY( 52,219)   DRY( 52,220)   DRY( 53,  1)   DRY( 53,  2)   
    DRY( 53,  3)   DRY( 53,  4)   DRY( 53,  5)   DRY( 53,  6)   DRY( 53,  7)   
    DRY( 53,  8)   DRY( 53,  9)   DRY( 53, 10)   DRY( 53, 11)   DRY( 53, 12)   
    DRY( 53, 13)   DRY( 53, 14)   DRY( 53, 15)   DRY( 53, 16)   DRY( 53, 17)   
    DRY( 53, 18)   DRY( 53, 19)   DRY( 53, 20)   DRY( 53, 21)   DRY( 53, 22)   
    DRY( 53, 23)   DRY( 53, 24)   DRY( 53, 25)   DRY( 53, 26)   DRY( 53, 27)   
    DRY( 53, 28)   DRY( 53, 29)   DRY( 53, 30)   DRY( 53, 31)   DRY( 53, 32)   
    DRY( 53, 33)   DRY( 53, 34)   DRY( 53, 35)   DRY( 53, 36)   DRY( 53, 37)   
    DRY( 53, 38)   DRY( 53, 39)   DRY( 53, 40)   DRY( 53, 41)   DRY( 53, 42)   
    DRY( 53, 43)   DRY( 53, 44)   DRY( 53, 45)   DRY( 53, 46)   DRY( 53, 47)   
    DRY( 53, 48)   DRY( 53, 49)   DRY( 53, 50)   DRY( 53, 51)   DRY( 53, 52)   
    DRY( 53, 53)   DRY( 53, 54)   DRY( 53, 55)   DRY( 53, 56)   DRY( 53, 57)   
    DRY( 53, 58)   DRY( 53, 59)   DRY( 53, 60)   DRY( 53, 61)   DRY( 53, 62)   
    DRY( 53, 63)   DRY( 53, 64)   DRY( 53, 65)   DRY( 53, 66)   DRY( 53, 67)   
    DRY( 53, 68)   DRY( 53, 69)   DRY( 53, 70)   DRY( 53, 71)   DRY( 53, 72)   
    DRY( 53, 73)   DRY( 53, 74)   DRY( 53, 75)   DRY( 53, 76)   DRY( 53, 77)   
    DRY( 53, 78)   DRY( 53, 79)   DRY( 53, 80)   DRY( 53, 81)   DRY( 53, 82)   
    DRY( 53, 83)   DRY( 53, 84)   DRY( 53, 85)   DRY( 53, 86)   DRY( 53, 87)   
    DRY( 53, 88)   DRY( 53, 89)   DRY( 53, 90)   DRY( 53, 91)   DRY( 53, 92)   
    DRY( 53, 93)   DRY( 53, 94)   DRY( 53, 95)   DRY( 53, 96)   DRY( 53, 97)   
    DRY( 53, 98)   DRY( 53, 99)   DRY( 53,100)   DRY( 53,101)   DRY( 53,102)   
    DRY( 53,103)   DRY( 53,104)   DRY( 53,105)   DRY( 53,106)   DRY( 53,107)   
    DRY( 53,108)   DRY( 53,109)   DRY( 53,110)   DRY( 53,111)   DRY( 53,112)   
    DRY( 53,113)   DRY( 53,114)   DRY( 53,115)   DRY( 53,116)   DRY( 53,117)   
    DRY( 53,118)   DRY( 53,119)   DRY( 53,120)   DRY( 53,121)   DRY( 53,122)   
    DRY( 53,123)   DRY( 53,124)   DRY( 53,125)   DRY( 53,126)   DRY( 53,127)   
    DRY( 53,128)   DRY( 53,129)   DRY( 53,130)   DRY( 53,131)   DRY( 53,132)   
    DRY( 53,133)   DRY( 53,134)   DRY( 53,135)   DRY( 53,136)   DRY( 53,137)   
    DRY( 53,138)   DRY( 53,139)   DRY( 53,140)   DRY( 53,141)   DRY( 53,142)   
    DRY( 53,143)   DRY( 53,144)   DRY( 53,145)   DRY( 53,146)   DRY( 53,147)   
    DRY( 53,148)   DRY( 53,149)   DRY( 53,150)   DRY( 53,151)   DRY( 53,152)   
    DRY( 53,153)   DRY( 53,154)   DRY( 53,155)   DRY( 53,156)   DRY( 53,157)   
    DRY( 53,158)   DRY( 53,159)   DRY( 53,160)   DRY( 53,161)   DRY( 53,162)   
    DRY( 53,163)   DRY( 53,164)   DRY( 53,165)   DRY( 53,166)   DRY( 53,167)   
    DRY( 53,168)   DRY( 53,169)   DRY( 53,170)   DRY( 53,171)   DRY( 53,172)   
    DRY( 53,173)   DRY( 53,174)   DRY( 53,175)   DRY( 53,176)   DRY( 53,177)   
    DRY( 53,178)   DRY( 53,179)   DRY( 53,180)   DRY( 53,181)   DRY( 53,182)   
    DRY( 53,183)   DRY( 53,184)   DRY( 53,185)   DRY( 53,186)   DRY( 53,187)   
    DRY( 53,188)   DRY( 53,189)   DRY( 53,190)   DRY( 53,191)   DRY( 53,192)   
    DRY( 53,193)   DRY( 53,194)   DRY( 53,195)   DRY( 53,196)   DRY( 53,197)   
    DRY( 53,198)   DRY( 53,199)   DRY( 53,200)   DRY( 53,201)   DRY( 53,202)   
    DRY( 53,203)   DRY( 53,204)   DRY( 53,205)   DRY( 53,206)   DRY( 53,207)   
    DRY( 53,208)   DRY( 53,209)   DRY( 53,210)   DRY( 53,211)   DRY( 53,212)   
    DRY( 53,213)   DRY( 53,214)   DRY( 53,215)   DRY( 53,216)   DRY( 53,217)   
    DRY( 53,218)   DRY( 53,219)   DRY( 53,220)   DRY( 54,  1)   DRY( 54,  2)   
    DRY( 54,  3)   DRY( 54,  4)   DRY( 54,  5)   DRY( 54,  6)   DRY( 54,  7)   
    DRY( 54,  8)   DRY( 54,  9)   DRY( 54, 10)   DRY( 54, 11)   DRY( 54, 12)   
    DRY( 54, 13)   DRY( 54, 14)   DRY( 54, 15)   DRY( 54, 16)   DRY( 54, 17)   
    DRY( 54, 18)   DRY( 54, 19)   DRY( 54, 20)   DRY( 54, 21)   DRY( 54, 22)   
    DRY( 54, 23)   DRY( 54, 24)   DRY( 54, 25)   DRY( 54, 26)   DRY( 54, 27)   
    DRY( 54, 28)   DRY( 54, 29)   DRY( 54, 30)   DRY( 54, 31)   DRY( 54, 32)   
    DRY( 54, 33)   DRY( 54, 34)   DRY( 54, 35)   DRY( 54, 36)   DRY( 54, 37)   
    DRY( 54, 38)   DRY( 54, 39)   DRY( 54, 40)   DRY( 54, 41)   DRY( 54, 42)   
    DRY( 54, 43)   DRY( 54, 44)   DRY( 54, 45)   DRY( 54, 46)   DRY( 54, 47)   
    DRY( 54, 48)   DRY( 54, 49)   DRY( 54, 50)   DRY( 54, 51)   DRY( 54, 52)   
    DRY( 54, 53)   DRY( 54, 54)   DRY( 54, 55)   DRY( 54, 56)   DRY( 54, 57)   
    DRY( 54, 58)   DRY( 54, 59)   DRY( 54, 60)   DRY( 54, 61)   DRY( 54, 62)   
    DRY( 54, 63)   DRY( 54, 64)   DRY( 54, 65)   DRY( 54, 66)   DRY( 54, 67)   
    DRY( 54, 68)   DRY( 54, 69)   DRY( 54, 70)   DRY( 54, 71)   DRY( 54, 72)   
    DRY( 54, 73)   DRY( 54, 74)   DRY( 54, 75)   DRY( 54, 76)   DRY( 54, 77)   
    DRY( 54, 78)   DRY( 54, 79)   DRY( 54, 80)   DRY( 54, 81)   DRY( 54, 82)   
    DRY( 54, 83)   DRY( 54, 84)   DRY( 54, 85)   DRY( 54, 86)   DRY( 54, 87)   
    DRY( 54, 88)   DRY( 54, 89)   DRY( 54, 90)   DRY( 54, 91)   DRY( 54, 92)   
    DRY( 54, 93)   DRY( 54, 94)   DRY( 54, 95)   DRY( 54, 96)   DRY( 54, 97)   
    DRY( 54, 98)   DRY( 54, 99)   DRY( 54,100)   DRY( 54,101)   DRY( 54,102)   
    DRY( 54,103)   DRY( 54,104)   DRY( 54,105)   DRY( 54,106)   DRY( 54,107)   
    DRY( 54,108)   DRY( 54,109)   DRY( 54,110)   DRY( 54,111)   DRY( 54,112)   
    DRY( 54,113)   DRY( 54,114)   DRY( 54,115)   DRY( 54,116)   DRY( 54,117)   
    DRY( 54,118)   DRY( 54,119)   DRY( 54,120)   DRY( 54,121)   DRY( 54,122)   
    DRY( 54,123)   DRY( 54,124)   DRY( 54,125)   DRY( 54,126)   DRY( 54,127)   
    DRY( 54,128)   DRY( 54,129)   DRY( 54,130)   DRY( 54,131)   DRY( 54,132)   
    DRY( 54,133)   DRY( 54,134)   DRY( 54,135)   DRY( 54,136)   DRY( 54,137)   
    DRY( 54,138)   DRY( 54,139)   DRY( 54,140)   DRY( 54,141)   DRY( 54,142)   
    DRY( 54,143)   DRY( 54,144)   DRY( 54,145)   DRY( 54,146)   DRY( 54,147)   
    DRY( 54,148)   DRY( 54,149)   DRY( 54,150)   DRY( 54,151)   DRY( 54,152)   
    DRY( 54,153)   DRY( 54,154)   DRY( 54,155)   DRY( 54,156)   DRY( 54,157)   
    DRY( 54,158)   DRY( 54,159)   DRY( 54,160)   DRY( 54,161)   DRY( 54,162)   
    DRY( 54,163)   DRY( 54,164)   DRY( 54,165)   DRY( 54,166)   DRY( 54,167)   
    DRY( 54,168)   DRY( 54,169)   DRY( 54,170)   DRY( 54,171)   DRY( 54,172)   
    DRY( 54,173)   DRY( 54,174)   DRY( 54,175)   DRY( 54,176)   DRY( 54,177)   
    DRY( 54,178)   DRY( 54,179)   DRY( 54,180)   DRY( 54,181)   DRY( 54,182)   
    DRY( 54,183)   DRY( 54,184)   DRY( 54,185)   DRY( 54,186)   DRY( 54,187)   
    DRY( 54,188)   DRY( 54,189)   DRY( 54,190)   DRY( 54,191)   DRY( 54,192)   
    DRY( 54,193)   DRY( 54,194)   DRY( 54,195)   DRY( 54,196)   DRY( 54,197)   
    DRY( 54,198)   DRY( 54,199)   DRY( 54,200)   DRY( 54,201)   DRY( 54,202)   
    DRY( 54,203)   DRY( 54,204)   DRY( 54,205)   DRY( 54,206)   DRY( 54,207)   
    DRY( 54,208)   DRY( 54,209)   DRY( 54,210)   DRY( 54,211)   DRY( 54,212)   
    DRY( 54,213)   DRY( 54,214)   DRY( 54,215)   DRY( 54,216)   DRY( 54,217)   
    DRY( 54,218)   DRY( 54,219)   DRY( 54,220)   DRY( 55,  1)   DRY( 55,  2)   
    DRY( 55,  3)   DRY( 55,  4)   DRY( 55,  5)   DRY( 55,  6)   DRY( 55,  7)   
    DRY( 55,  8)   DRY( 55,  9)   DRY( 55, 10)   DRY( 55, 11)   DRY( 55, 12)   
    DRY( 55, 13)   DRY( 55, 14)   DRY( 55, 15)   DRY( 55, 16)   DRY( 55, 17)   
    DRY( 55, 18)   DRY( 55, 19)   DRY( 55, 20)   DRY( 55, 21)   DRY( 55, 22)   
    DRY( 55, 23)   DRY( 55, 24)   DRY( 55, 25)   DRY( 55, 26)   DRY( 55, 27)   
    DRY( 55, 28)   DRY( 55, 29)   DRY( 55, 30)   DRY( 55, 31)   DRY( 55, 32)   
    DRY( 55, 33)   DRY( 55, 34)   DRY( 55, 35)   DRY( 55, 36)   DRY( 55, 37)   
    DRY( 55, 38)   DRY( 55, 39)   DRY( 55, 40)   DRY( 55, 41)   DRY( 55, 42)   
    DRY( 55, 43)   DRY( 55, 44)   DRY( 55, 45)   DRY( 55, 46)   DRY( 55, 47)   
    DRY( 55, 48)   DRY( 55, 49)   DRY( 55, 50)   DRY( 55, 51)   DRY( 55, 52)   
    DRY( 55, 53)   DRY( 55, 54)   DRY( 55, 55)   DRY( 55, 56)   DRY( 55, 57)   
    DRY( 55, 58)   DRY( 55, 59)   DRY( 55, 60)   DRY( 55, 61)   DRY( 55, 62)   
    DRY( 55, 63)   DRY( 55, 64)   DRY( 55, 65)   DRY( 55, 66)   DRY( 55, 67)   
    DRY( 55, 68)   DRY( 55, 69)   DRY( 55, 70)   DRY( 55, 71)   DRY( 55, 72)   
    DRY( 55, 73)   DRY( 55, 74)   DRY( 55, 75)   DRY( 55, 76)   DRY( 55, 77)   
    DRY( 55, 78)   DRY( 55, 79)   DRY( 55, 80)   DRY( 55, 81)   DRY( 55, 82)   
    DRY( 55, 83)   DRY( 55, 84)   DRY( 55, 85)   DRY( 55, 86)   DRY( 55, 87)   
    DRY( 55, 88)   DRY( 55, 89)   DRY( 55, 90)   DRY( 55, 91)   DRY( 55, 92)   
    DRY( 55, 93)   DRY( 55, 94)   DRY( 55, 95)   DRY( 55, 96)   DRY( 55, 97)   
    DRY( 55, 98)   DRY( 55, 99)   DRY( 55,100)   DRY( 55,101)   DRY( 55,102)   
    DRY( 55,103)   DRY( 55,104)   DRY( 55,105)   DRY( 55,106)   DRY( 55,107)   
    DRY( 55,108)   DRY( 55,109)   DRY( 55,110)   DRY( 55,111)   DRY( 55,112)   
    DRY( 55,113)   DRY( 55,114)   DRY( 55,115)   DRY( 55,116)   DRY( 55,117)   
    DRY( 55,118)   DRY( 55,119)   DRY( 55,120)   DRY( 55,121)   DRY( 55,122)   
    DRY( 55,123)   DRY( 55,124)   DRY( 55,125)   DRY( 55,126)   DRY( 55,127)   
    DRY( 55,128)   DRY( 55,129)   DRY( 55,130)   DRY( 55,131)   DRY( 55,132)   
    DRY( 55,133)   DRY( 55,134)   DRY( 55,135)   DRY( 55,136)   DRY( 55,137)   
    DRY( 55,138)   DRY( 55,139)   DRY( 55,140)   DRY( 55,141)   DRY( 55,142)   
    DRY( 55,143)   DRY( 55,144)   DRY( 55,145)   DRY( 55,146)   DRY( 55,147)   
    DRY( 55,148)   DRY( 55,149)   DRY( 55,150)   DRY( 55,151)   DRY( 55,152)   
    DRY( 55,153)   DRY( 55,154)   DRY( 55,155)   DRY( 55,156)   DRY( 55,157)   
    DRY( 55,158)   DRY( 55,159)   DRY( 55,160)   DRY( 55,161)   DRY( 55,162)   
    DRY( 55,163)   DRY( 55,164)   DRY( 55,165)   DRY( 55,166)   DRY( 55,167)   
    DRY( 55,168)   DRY( 55,169)   DRY( 55,170)   DRY( 55,171)   DRY( 55,172)   
    DRY( 55,173)   DRY( 55,174)   DRY( 55,175)   DRY( 55,176)   DRY( 55,177)   
    DRY( 55,178)   DRY( 55,179)   DRY( 55,180)   DRY( 55,181)   DRY( 55,182)   
    DRY( 55,183)   DRY( 55,184)   DRY( 55,185)   DRY( 55,186)   DRY( 55,187)   
    DRY( 55,188)   DRY( 55,189)   DRY( 55,190)   DRY( 55,191)   DRY( 55,192)   
    DRY( 55,193)   DRY( 55,194)   DRY( 55,195)   DRY( 55,196)   DRY( 55,197)   
    DRY( 55,198)   DRY( 55,199)   DRY( 55,200)   DRY( 55,201)   DRY( 55,202)   
    DRY( 55,203)   DRY( 55,204)   DRY( 55,205)   DRY( 55,206)   DRY( 55,207)   
    DRY( 55,208)   DRY( 55,209)   DRY( 55,210)   DRY( 55,211)   DRY( 55,212)   
    DRY( 55,213)   DRY( 55,214)   DRY( 55,215)   DRY( 55,216)   DRY( 55,217)   
    DRY( 55,218)   DRY( 55,219)   DRY( 55,220)   DRY( 56,  1)   DRY( 56,  2)   
    DRY( 56,  3)   DRY( 56,  4)   DRY( 56,  5)   DRY( 56,  6)   DRY( 56,  7)   
    DRY( 56,  8)   DRY( 56,  9)   DRY( 56, 10)   DRY( 56, 11)   DRY( 56, 12)   
    DRY( 56, 13)   DRY( 56, 14)   DRY( 56, 15)   DRY( 56, 16)   DRY( 56, 17)   
    DRY( 56, 18)   DRY( 56, 19)   DRY( 56, 20)   DRY( 56, 21)   DRY( 56, 22)   
    DRY( 56, 23)   DRY( 56, 24)   DRY( 56, 25)   DRY( 56, 26)   DRY( 56, 27)   
    DRY( 56, 28)   DRY( 56, 29)   DRY( 56, 30)   DRY( 56, 31)   DRY( 56, 32)   
    DRY( 56, 33)   DRY( 56, 34)   DRY( 56, 35)   DRY( 56, 36)   DRY( 56, 37)   
    DRY( 56, 38)   DRY( 56, 39)   DRY( 56, 40)   DRY( 56, 41)   DRY( 56, 42)   
    DRY( 56, 43)   DRY( 56, 44)   DRY( 56, 45)   DRY( 56, 46)   DRY( 56, 47)   
    DRY( 56, 48)   DRY( 56, 49)   DRY( 56, 50)   DRY( 56, 51)   DRY( 56, 52)   
    DRY( 56, 53)   DRY( 56, 54)   DRY( 56, 55)   DRY( 56, 56)   DRY( 56, 57)   
    DRY( 56, 58)   DRY( 56, 59)   DRY( 56, 60)   DRY( 56, 61)   DRY( 56, 62)   
    DRY( 56, 63)   DRY( 56, 64)   DRY( 56, 65)   DRY( 56, 66)   DRY( 56, 67)   
    DRY( 56, 68)   DRY( 56, 69)   DRY( 56, 70)   DRY( 56, 71)   DRY( 56, 72)   
    DRY( 56, 73)   DRY( 56, 74)   DRY( 56, 75)   DRY( 56, 76)   DRY( 56, 77)   
    DRY( 56, 78)   DRY( 56, 79)   DRY( 56, 80)   DRY( 56, 81)   DRY( 56, 82)   
    DRY( 56, 83)   DRY( 56, 84)   DRY( 56, 85)   DRY( 56, 86)   DRY( 56, 87)   
    DRY( 56, 88)   DRY( 56, 89)   DRY( 56, 90)   DRY( 56, 91)   DRY( 56, 92)   
    DRY( 56, 93)   DRY( 56, 94)   DRY( 56, 95)   DRY( 56, 96)   DRY( 56, 97)   
    DRY( 56, 98)   DRY( 56, 99)   DRY( 56,100)   DRY( 56,101)   DRY( 56,102)   
    DRY( 56,103)   DRY( 56,104)   DRY( 56,105)   DRY( 56,106)   DRY( 56,107)   
    DRY( 56,108)   DRY( 56,109)   DRY( 56,110)   DRY( 56,111)   DRY( 56,112)   
    DRY( 56,113)   DRY( 56,114)   DRY( 56,115)   DRY( 56,116)   DRY( 56,117)   
    DRY( 56,118)   DRY( 56,119)   DRY( 56,120)   DRY( 56,121)   DRY( 56,122)   
    DRY( 56,123)   DRY( 56,124)   DRY( 56,125)   DRY( 56,126)   DRY( 56,127)   
    DRY( 56,128)   DRY( 56,129)   DRY( 56,130)   DRY( 56,131)   DRY( 56,132)   
    DRY( 56,133)   DRY( 56,134)   DRY( 56,135)   DRY( 56,136)   DRY( 56,137)   
    DRY( 56,138)   DRY( 56,139)   DRY( 56,140)   DRY( 56,141)   DRY( 56,142)   
    DRY( 56,143)   DRY( 56,144)   DRY( 56,145)   DRY( 56,146)   DRY( 56,147)   
    DRY( 56,148)   DRY( 56,149)   DRY( 56,150)   DRY( 56,151)   DRY( 56,152)   
    DRY( 56,153)   DRY( 56,154)   DRY( 56,155)   DRY( 56,156)   DRY( 56,157)   
    DRY( 56,158)   DRY( 56,159)   DRY( 56,160)   DRY( 56,161)   DRY( 56,162)   
    DRY( 56,163)   DRY( 56,164)   DRY( 56,165)   DRY( 56,166)   DRY( 56,167)   
    DRY( 56,168)   DRY( 56,169)   DRY( 56,170)   DRY( 56,171)   DRY( 56,172)   
    DRY( 56,173)   DRY( 56,174)   DRY( 56,175)   DRY( 56,176)   DRY( 56,177)   
    DRY( 56,178)   DRY( 56,179)   DRY( 56,180)   DRY( 56,181)   DRY( 56,182)   
    DRY( 56,183)   DRY( 56,184)   DRY( 56,185)   DRY( 56,186)   DRY( 56,187)   
    DRY( 56,188)   DRY( 56,189)   DRY( 56,190)   DRY( 56,191)   DRY( 56,192)   
    DRY( 56,193)   DRY( 56,194)   DRY( 56,195)   DRY( 56,196)   DRY( 56,197)   
    DRY( 56,198)   DRY( 56,199)   DRY( 56,200)   DRY( 56,201)   DRY( 56,202)   
    DRY( 56,203)   DRY( 56,204)   DRY( 56,205)   DRY( 56,206)   DRY( 56,207)   
    DRY( 56,208)   DRY( 56,209)   DRY( 56,210)   DRY( 56,211)   DRY( 56,212)   
    DRY( 56,213)   DRY( 56,214)   DRY( 56,215)   DRY( 56,216)   DRY( 56,217)   
    DRY( 56,218)   DRY( 56,219)   DRY( 56,220)   DRY( 57,  1)   DRY( 57,  2)   
    DRY( 57,  3)   DRY( 57,  4)   DRY( 57,  5)   DRY( 57,  6)   DRY( 57,  7)   
    DRY( 57,  8)   DRY( 57,  9)   DRY( 57, 10)   DRY( 57, 11)   DRY( 57, 12)   
    DRY( 57, 13)   DRY( 57, 14)   DRY( 57, 15)   DRY( 57, 16)   DRY( 57, 17)   
    DRY( 57, 18)   DRY( 57, 19)   DRY( 57, 20)   DRY( 57, 21)   DRY( 57, 22)   
    DRY( 57, 23)   DRY( 57, 24)   DRY( 57, 25)   DRY( 57, 26)   DRY( 57, 27)   
    DRY( 57, 28)   DRY( 57, 29)   DRY( 57, 30)   DRY( 57, 31)   DRY( 57, 32)   
    DRY( 57, 33)   DRY( 57, 34)   DRY( 57, 35)   DRY( 57, 36)   DRY( 57, 37)   
    DRY( 57, 38)   DRY( 57, 39)   DRY( 57, 40)   DRY( 57, 41)   DRY( 57, 42)   
    DRY( 57, 43)   DRY( 57, 44)   DRY( 57, 45)   DRY( 57, 46)   DRY( 57, 47)   
    DRY( 57, 48)   DRY( 57, 49)   DRY( 57, 50)   DRY( 57, 51)   DRY( 57, 52)   
    DRY( 57, 53)   DRY( 57, 54)   DRY( 57, 55)   DRY( 57, 56)   DRY( 57, 57)   
    DRY( 57, 58)   DRY( 57, 59)   DRY( 57, 60)   DRY( 57, 61)   DRY( 57, 62)   
    DRY( 57, 63)   DRY( 57, 64)   DRY( 57, 65)   DRY( 57, 66)   DRY( 57, 67)   
    DRY( 57, 68)   DRY( 57, 69)   DRY( 57, 70)   DRY( 57, 71)   DRY( 57, 72)   
    DRY( 57, 73)   DRY( 57, 74)   DRY( 57, 75)   DRY( 57, 76)   DRY( 57, 77)   
    DRY( 57, 78)   DRY( 57, 79)   DRY( 57, 80)   DRY( 57, 81)   DRY( 57, 82)   
    DRY( 57, 83)   DRY( 57, 84)   DRY( 57, 85)   DRY( 57, 86)   DRY( 57, 87)   
    DRY( 57, 88)   DRY( 57, 89)   DRY( 57, 90)   DRY( 57, 91)   DRY( 57, 92)   
    DRY( 57, 93)   DRY( 57, 94)   DRY( 57, 95)   DRY( 57, 96)   DRY( 57, 97)   
    DRY( 57, 98)   DRY( 57, 99)   DRY( 57,100)   DRY( 57,101)   DRY( 57,102)   
    DRY( 57,103)   DRY( 57,104)   DRY( 57,105)   DRY( 57,106)   DRY( 57,107)   
    DRY( 57,108)   DRY( 57,109)   DRY( 57,110)   DRY( 57,111)   DRY( 57,112)   
    DRY( 57,113)   DRY( 57,114)   DRY( 57,115)   DRY( 57,116)   DRY( 57,117)   
    DRY( 57,118)   DRY( 57,119)   DRY( 57,120)   DRY( 57,121)   DRY( 57,122)   
    DRY( 57,123)   DRY( 57,124)   DRY( 57,125)   DRY( 57,126)   DRY( 57,127)   
    DRY( 57,128)   DRY( 57,129)   DRY( 57,130)   DRY( 57,131)   DRY( 57,132)   
    DRY( 57,133)   DRY( 57,134)   DRY( 57,135)   DRY( 57,136)   DRY( 57,137)   
    DRY( 57,138)   DRY( 57,139)   DRY( 57,140)   DRY( 57,141)   DRY( 57,142)   
    DRY( 57,143)   DRY( 57,144)   DRY( 57,145)   DRY( 57,146)   DRY( 57,147)   
    DRY( 57,148)   DRY( 57,149)   DRY( 57,150)   DRY( 57,151)   DRY( 57,152)   
    DRY( 57,153)   DRY( 57,154)   DRY( 57,155)   DRY( 57,156)   DRY( 57,157)   
    DRY( 57,158)   DRY( 57,159)   DRY( 57,160)   DRY( 57,161)   DRY( 57,162)   
    DRY( 57,163)   DRY( 57,164)   DRY( 57,165)   DRY( 57,166)   DRY( 57,167)   
    DRY( 57,168)   DRY( 57,169)   DRY( 57,170)   DRY( 57,171)   DRY( 57,172)   
    DRY( 57,173)   DRY( 57,174)   DRY( 57,175)   DRY( 57,176)   DRY( 57,177)   
    DRY( 57,178)   DRY( 57,179)   DRY( 57,180)   DRY( 57,181)   DRY( 57,182)   
    DRY( 57,183)   DRY( 57,184)   DRY( 57,185)   DRY( 57,186)   DRY( 57,187)   
    DRY( 57,188)   DRY( 57,189)   DRY( 57,190)   DRY( 57,191)   DRY( 57,192)   
    DRY( 57,193)   DRY( 57,194)   DRY( 57,195)   DRY( 57,196)   DRY( 57,197)   
    DRY( 57,198)   DRY( 57,199)   DRY( 57,200)   DRY( 57,201)   DRY( 57,202)   
    DRY( 57,203)   DRY( 57,204)   DRY( 57,205)   DRY( 57,206)   DRY( 57,207)   
    DRY( 57,208)   DRY( 57,209)   DRY( 57,210)   DRY( 57,211)   DRY( 57,212)   
    DRY( 57,213)   DRY( 57,214)   DRY( 57,215)   DRY( 57,216)   DRY( 57,217)   
    DRY( 57,218)   DRY( 57,219)   DRY( 57,220)   DRY( 58,  3)   DRY( 58,  4)   
    DRY( 58,  5)   DRY( 58,  6)   DRY( 58,  7)   DRY( 58,  8)   DRY( 58,  9)   
    DRY( 58, 10)   DRY( 58, 11)   DRY( 58, 12)   DRY( 58, 13)   DRY( 58, 14)   
    DRY( 58, 15)   DRY( 58, 16)   DRY( 58, 17)   DRY( 58, 18)   DRY( 58, 19)   
    DRY( 58, 20)   DRY( 58, 21)   DRY( 58, 22)   DRY( 58, 23)   DRY( 58, 24)   
    DRY( 58, 25)   DRY( 58, 26)   DRY( 58, 27)   DRY( 58, 28)   DRY( 58, 29)   
    DRY( 58, 30)   DRY( 58, 31)   DRY( 58, 32)   DRY( 58, 33)   DRY( 58, 34)   
    DRY( 58, 35)   DRY( 58, 36)   DRY( 58, 37)   DRY( 58, 38)   DRY( 58, 39)   
    DRY( 58, 40)   DRY( 58, 41)   DRY( 58, 42)   DRY( 58, 43)   DRY( 58, 44)   
    DRY( 58, 45)   DRY( 58, 46)   DRY( 58, 47)   DRY( 58, 48)   DRY( 58, 49)   
    DRY( 58, 50)   DRY( 58, 51)   DRY( 58, 52)   DRY( 58, 53)   DRY( 58, 54)   
    DRY( 58, 55)   DRY( 58, 56)   DRY( 58, 57)   DRY( 58, 58)   DRY( 58, 59)   
    DRY( 58, 60)   DRY( 58, 61)   DRY( 58, 62)   DRY( 58, 63)   DRY( 58, 64)   
    DRY( 58, 65)   DRY( 58, 66)   DRY( 58, 67)   DRY( 58, 68)   DRY( 58, 69)   
    DRY( 58, 70)   DRY( 58, 71)   DRY( 58, 72)   DRY( 58, 73)   DRY( 58, 74)   
    DRY( 58, 75)   DRY( 58, 76)   DRY( 58, 77)   DRY( 58, 78)   DRY( 58, 79)   
    DRY( 58, 80)   DRY( 58, 81)   DRY( 58, 82)   DRY( 58, 83)   DRY( 58, 84)   
    DRY( 58, 85)   DRY( 58, 86)   DRY( 58, 87)   DRY( 58, 88)   DRY( 58, 89)   
    DRY( 58, 90)   DRY( 58, 91)   DRY( 58, 92)   DRY( 58, 93)   DRY( 58, 94)   
    DRY( 58, 95)   DRY( 58, 96)   DRY( 58, 97)   DRY( 58, 98)   DRY( 58, 99)   
    DRY( 58,100)   DRY( 58,101)   DRY( 58,102)   DRY( 58,103)   DRY( 58,104)   
    DRY( 58,105)   DRY( 58,106)   DRY( 58,107)   DRY( 58,108)   DRY( 58,109)   
    DRY( 58,110)   DRY( 58,111)   DRY( 58,112)   DRY( 58,113)   DRY( 58,114)   
    DRY( 58,115)   DRY( 58,116)   DRY( 58,117)   DRY( 58,118)   DRY( 58,119)   
    DRY( 58,120)   DRY( 58,121)   DRY( 58,122)   DRY( 58,123)   DRY( 58,124)   
    DRY( 58,125)   DRY( 58,126)   DRY( 58,127)   DRY( 58,128)   DRY( 58,129)   
    DRY( 58,130)   DRY( 58,131)   DRY( 58,132)   DRY( 58,133)   DRY( 58,134)   
    DRY( 58,135)   DRY( 58,136)   DRY( 58,137)   DRY( 58,138)   DRY( 58,139)   
    DRY( 58,140)   DRY( 58,141)   DRY( 58,142)   DRY( 58,143)   DRY( 58,144)   
    DRY( 58,145)   DRY( 58,146)   DRY( 58,147)   DRY( 58,148)   DRY( 58,149)   
    DRY( 58,150)   DRY( 58,151)   DRY( 58,152)   DRY( 58,153)   DRY( 58,154)   
    DRY( 58,155)   DRY( 58,156)   DRY( 58,157)   DRY( 58,158)   DRY( 58,159)   
    DRY( 58,160)   DRY( 58,161)   DRY( 58,162)   DRY( 58,163)   DRY( 58,164)   
    DRY( 58,165)   DRY( 58,166)   DRY( 58,167)   DRY( 58,168)   DRY( 58,169)   
    DRY( 58,170)   DRY( 58,171)   DRY( 58,172)   DRY( 58,173)   DRY( 58,174)   
    DRY( 58,175)   DRY( 58,176)   DRY( 58,177)   DRY( 58,178)   DRY( 58,179)   
    DRY( 58,180)   DRY( 58,181)   DRY( 58,182)   DRY( 58,183)   DRY( 58,184)   
    DRY( 58,185)   DRY( 58,186)   DRY( 58,187)   DRY( 58,188)   DRY( 58,189)   
    DRY( 58,190)   DRY( 58,191)   DRY( 58,192)   DRY( 58,193)   DRY( 58,194)   
    DRY( 58,195)   DRY( 58,196)   DRY( 58,197)   DRY( 58,198)   DRY( 58,199)   
    DRY( 58,200)   DRY( 58,201)   DRY( 58,202)   DRY( 58,203)   DRY( 58,204)   
    DRY( 58,205)   DRY( 58,206)   DRY( 58,207)   DRY( 58,208)   DRY( 58,209)   
    DRY( 58,210)   DRY( 58,211)   DRY( 58,212)   DRY( 58,213)   DRY( 58,214)   
    DRY( 58,215)   DRY( 58,216)   DRY( 58,217)   DRY( 58,218)   DRY( 58,219)   
    DRY( 58,220)   DRY( 59,  6)   DRY( 59,  7)   DRY( 59,  8)   DRY( 59,  9)   
    DRY( 59, 10)   DRY( 59, 11)   DRY( 59, 12)   DRY( 59, 13)   DRY( 59, 14)   
    DRY( 59, 15)   DRY( 59, 16)   DRY( 59, 17)   DRY( 59, 18)   DRY( 59, 19)   
    DRY( 59, 20)   DRY( 59, 27)   DRY( 59, 28)   DRY( 59, 29)   DRY( 59, 30)   
    DRY( 59, 31)   DRY( 59, 32)   DRY( 59, 33)   DRY( 59, 34)   DRY( 59, 35)   
    DRY( 59, 36)   DRY( 59, 37)   DRY( 59, 38)   DRY( 59, 39)   DRY( 59, 40)   
    DRY( 59, 41)   DRY( 59, 42)   DRY( 59, 43)   DRY( 59, 44)   DRY( 59, 45)   
    DRY( 59, 46)   DRY( 59, 47)   DRY( 59, 48)   DRY( 59, 49)   DRY( 59, 50)   
    DRY( 59, 51)   DRY( 59, 52)   DRY( 59, 53)   DRY( 59, 54)   DRY( 59, 55)   
    DRY( 59, 56)   DRY( 59, 57)   DRY( 59, 58)   DRY( 59, 59)   DRY( 59, 60)   
    DRY( 59, 61)   DRY( 59, 62)   DRY( 59, 63)   DRY( 59, 64)   DRY( 59, 65)   
    DRY( 59, 66)   DRY( 59, 67)   DRY( 59, 68)   DRY( 59, 69)   DRY( 59, 70)   
    DRY( 59, 71)   DRY( 59, 72)   DRY( 59, 73)   DRY( 59, 74)   DRY( 59, 75)   
    DRY( 59, 76)   DRY( 59, 77)   DRY( 59, 78)   DRY( 59, 79)   DRY( 59, 80)   
    DRY( 59, 81)   DRY( 59, 82)   DRY( 59, 83)   DRY( 59, 84)   DRY( 59, 85)   
    DRY( 59, 86)   DRY( 59, 87)   DRY( 59, 88)   DRY( 59, 89)   DRY( 59, 90)   
    DRY( 59, 91)   DRY( 59, 92)   DRY( 59, 93)   DRY( 59, 94)   DRY( 59, 95)   
    DRY( 59, 96)   DRY( 59, 97)   DRY( 59, 98)   DRY( 59, 99)   DRY( 59,100)   
    DRY( 59,101)   DRY( 59,102)   DRY( 59,103)   DRY( 59,104)   DRY( 59,105)   
    DRY( 59,106)   DRY( 59,107)   DRY( 59,108)   DRY( 59,109)   DRY( 59,110)   
    DRY( 59,111)   DRY( 59,112)   DRY( 59,113)   DRY( 59,114)   DRY( 59,115)   
    DRY( 59,116)   DRY( 59,117)   DRY( 59,118)   DRY( 59,119)   DRY( 59,120)   
    DRY( 59,121)   DRY( 59,122)   DRY( 59,123)   DRY( 59,124)   DRY( 59,125)   
    DRY( 59,126)   DRY( 59,127)   DRY( 59,128)   DRY( 59,129)   DRY( 59,130)   
    DRY( 59,131)   DRY( 59,132)   DRY( 59,133)   DRY( 59,134)   DRY( 59,135)   
    DRY( 59,136)   DRY( 59,137)   DRY( 59,138)   DRY( 59,139)   DRY( 59,140)   
    DRY( 59,141)   DRY( 59,142)   DRY( 59,143)   DRY( 59,144)   DRY( 59,145)   
    DRY( 59,146)   DRY( 59,147)   DRY( 59,148)   DRY( 59,149)   DRY( 59,150)   
    DRY( 59,151)   DRY( 59,152)   DRY( 59,153)   DRY( 59,154)   DRY( 59,155)   
    DRY( 59,156)   DRY( 59,157)   DRY( 59,158)   DRY( 59,159)   DRY( 59,160)   
    DRY( 59,161)   DRY( 59,162)   DRY( 59,163)   DRY( 59,164)   DRY( 59,165)   
    DRY( 59,166)   DRY( 59,167)   DRY( 59,168)   DRY( 59,169)   DRY( 59,170)   
    DRY( 59,171)   DRY( 59,172)   DRY( 59,173)   DRY( 59,174)   DRY( 59,175)   
    DRY( 59,176)   DRY( 59,177)   DRY( 59,178)   DRY( 59,179)   DRY( 59,180)   
    DRY( 59,181)   DRY( 59,182)   DRY( 59,183)   DRY( 59,184)   DRY( 59,185)   
    DRY( 59,186)   DRY( 59,187)   DRY( 59,188)   DRY( 59,189)   DRY( 59,190)   
    DRY( 59,191)   DRY( 59,192)   DRY( 59,193)   DRY( 59,194)   DRY( 59,195)   
    DRY( 59,196)   DRY( 59,197)   DRY( 59,198)   DRY( 59,199)   DRY( 59,200)   
    DRY( 59,201)   DRY( 59,202)   DRY( 59,203)   DRY( 59,204)   DRY( 59,205)   
    DRY( 59,206)   DRY( 59,207)   DRY( 59,208)   DRY( 59,209)   DRY( 59,210)   
    DRY( 59,211)   DRY( 59,212)   DRY( 59,213)   DRY( 59,214)   DRY( 59,215)   
    DRY( 59,216)   DRY( 59,217)   DRY( 59,218)   DRY( 59,219)   DRY( 59,220)   
    DRY( 60, 10)   DRY( 60, 11)   DRY( 60, 12)   DRY( 60, 13)   DRY( 60, 14)   
    DRY( 60, 15)   DRY( 60, 16)   DRY( 60, 17)   DRY( 60, 18)   DRY( 60, 30)   
    DRY( 60, 31)   DRY( 60, 32)   DRY( 60, 33)   DRY( 60, 34)   DRY( 60, 35)   
    DRY( 60, 36)   DRY( 60, 37)   DRY( 60, 38)   DRY( 60, 39)   DRY( 60, 40)   
    DRY( 60, 41)   DRY( 60, 42)   DRY( 60, 43)   DRY( 60, 44)   DRY( 60, 45)   
    DRY( 60, 46)   DRY( 60, 47)   DRY( 60, 48)   DRY( 60, 49)   DRY( 60, 50)   
    DRY( 60, 51)   DRY( 60, 52)   DRY( 60, 53)   DRY( 60, 54)   DRY( 60, 55)   
    DRY( 60, 56)   DRY( 60, 57)   DRY( 60, 58)   DRY( 60, 59)   DRY( 60, 60)   
    DRY( 60, 61)   DRY( 60, 62)   DRY( 60, 63)   DRY( 60, 64)   DRY( 60, 65)   
    DRY( 60, 66)   DRY( 60, 67)   DRY( 60, 68)   DRY( 60, 69)   DRY( 60, 70)   
    DRY( 60, 71)   DRY( 60, 72)   DRY( 60, 73)   DRY( 60, 74)   DRY( 60, 75)   
    DRY( 60, 76)   DRY( 60, 77)   DRY( 60, 78)   DRY( 60, 79)   DRY( 60, 80)   
    DRY( 60, 81)   DRY( 60, 82)   DRY( 60, 83)   DRY( 60, 84)   DRY( 60, 85)   
    DRY( 60, 86)   DRY( 60, 87)   DRY( 60, 88)   DRY( 60, 89)   DRY( 60, 90)   
    DRY( 60, 91)   DRY( 60, 92)   DRY( 60, 93)   DRY( 60, 94)   DRY( 60, 95)   
    DRY( 60, 96)   DRY( 60, 97)   DRY( 60, 98)   DRY( 60, 99)   DRY( 60,100)   
    DRY( 60,101)   DRY( 60,102)   DRY( 60,103)   DRY( 60,104)   DRY( 60,105)   
    DRY( 60,106)   DRY( 60,107)   DRY( 60,108)   DRY( 60,109)   DRY( 60,110)   
    DRY( 60,111)   DRY( 60,112)   DRY( 60,113)   DRY( 60,114)   DRY( 60,115)   
    DRY( 60,116)   DRY( 60,117)   DRY( 60,118)   DRY( 60,119)   DRY( 60,120)   
    DRY( 60,121)   DRY( 60,122)   DRY( 60,123)   DRY( 60,124)   DRY( 60,125)   
    DRY( 60,126)   DRY( 60,127)   DRY( 60,128)   DRY( 60,129)   DRY( 60,130)   
    DRY( 60,131)   DRY( 60,132)   DRY( 60,133)   DRY( 60,134)   DRY( 60,135)   
    DRY( 60,136)   DRY( 60,137)   DRY( 60,138)   DRY( 60,139)   DRY( 60,140)   
    DRY( 60,141)   DRY( 60,142)   DRY( 60,143)   DRY( 60,144)   DRY( 60,145)   
    DRY( 60,146)   DRY( 60,147)   DRY( 60,148)   DRY( 60,149)   DRY( 60,150)   
    DRY( 60,151)   DRY( 60,152)   DRY( 60,153)   DRY( 60,154)   DRY( 60,155)   
    DRY( 60,156)   DRY( 60,157)   DRY( 60,158)   DRY( 60,159)   DRY( 60,160)   
    DRY( 60,161)   DRY( 60,162)   DRY( 60,163)   DRY( 60,164)   DRY( 60,165)   
    DRY( 60,166)   DRY( 60,167)   DRY( 60,168)   DRY( 60,169)   DRY( 60,170)   
    DRY( 60,171)   DRY( 60,172)   DRY( 60,173)   DRY( 60,174)   DRY( 60,175)   
    DRY( 60,176)   DRY( 60,177)   DRY( 60,178)   DRY( 60,179)   DRY( 60,180)   
    DRY( 60,181)   DRY( 60,182)   DRY( 60,183)   DRY( 60,184)   DRY( 60,185)   
    DRY( 60,186)   DRY( 60,187)   DRY( 60,188)   DRY( 60,189)   DRY( 60,190)   
    DRY( 60,191)   DRY( 60,192)   DRY( 60,193)   DRY( 60,194)   DRY( 60,195)   
    DRY( 60,196)   DRY( 60,197)   DRY( 60,198)   DRY( 60,199)   DRY( 60,200)   
    DRY( 60,201)   DRY( 60,202)   DRY( 60,203)   DRY( 60,204)   DRY( 60,205)   
    DRY( 60,206)   DRY( 60,207)   DRY( 60,208)   DRY( 60,209)   DRY( 60,210)   
    DRY( 60,211)   DRY( 60,212)   DRY( 60,213)   DRY( 60,214)   DRY( 60,215)   
    DRY( 60,216)   DRY( 60,217)   DRY( 60,218)   DRY( 60,219)   DRY( 60,220)   
    DRY( 61, 15)   DRY( 61, 34)   DRY( 61, 35)   DRY( 61, 36)   DRY( 61, 37)   
    DRY( 61, 38)   DRY( 61, 39)   DRY( 61, 40)   DRY( 61, 41)   DRY( 61, 42)   
    DRY( 61, 43)   DRY( 61, 44)   DRY( 61, 45)   DRY( 61, 46)   DRY( 61, 47)   
    DRY( 61, 48)   DRY( 61, 49)   DRY( 61, 50)   DRY( 61, 51)   DRY( 61, 52)   
    DRY( 61, 53)   DRY( 61, 54)   DRY( 61, 55)   DRY( 61, 56)   DRY( 61, 57)   
    DRY( 61, 58)   DRY( 61, 59)   DRY( 61, 60)   DRY( 61, 61)   DRY( 61, 62)   
    DRY( 61, 63)   DRY( 61, 64)   DRY( 61, 65)   DRY( 61, 66)   DRY( 61, 67)   
    DRY( 61, 68)   DRY( 61, 69)   DRY( 61, 70)   DRY( 61, 71)   DRY( 61, 72)   
    DRY( 61, 73)   DRY( 61, 76)   DRY( 61, 77)   DRY( 61, 78)   DRY( 61, 79)   
    DRY( 61, 80)   DRY( 61, 81)   DRY( 61, 82)   DRY( 61, 83)   DRY( 61, 84)   
    DRY( 61, 85)   DRY( 61, 86)   DRY( 61, 87)   DRY( 61, 88)   DRY( 61, 89)   
    DRY( 61, 90)   DRY( 61, 91)   DRY( 61, 92)   DRY( 61, 93)   DRY( 61, 94)   
    DRY( 61, 95)   DRY( 61, 96)   DRY( 61, 97)   DRY( 61, 98)   DRY( 61, 99)   
    DRY( 61,100)   DRY( 61,101)   DRY( 61,102)   DRY( 61,103)   DRY( 61,104)   
    DRY( 61,105)   DRY( 61,106)   DRY( 61,107)   DRY( 61,108)   DRY( 61,109)   
    DRY( 61,110)   DRY( 61,111)   DRY( 61,112)   DRY( 61,113)   DRY( 61,114)   
    DRY( 61,115)   DRY( 61,116)   DRY( 61,117)   DRY( 61,118)   DRY( 61,119)   
    DRY( 61,120)   DRY( 61,121)   DRY( 61,122)   DRY( 61,123)   DRY( 61,124)   
    DRY( 61,125)   DRY( 61,126)   DRY( 61,127)   DRY( 61,128)   DRY( 61,129)   
    DRY( 61,130)   DRY( 61,131)   DRY( 61,132)   DRY( 61,133)   DRY( 61,134)   
    DRY( 61,135)   DRY( 61,136)   DRY( 61,137)   DRY( 61,138)   DRY( 61,139)   
    DRY( 61,140)   DRY( 61,141)   DRY( 61,142)   DRY( 61,143)   DRY( 61,144)   
    DRY( 61,145)   DRY( 61,146)   DRY( 61,147)   DRY( 61,148)   DRY( 61,149)   
    DRY( 61,150)   DRY( 61,151)   DRY( 61,152)   DRY( 61,153)   DRY( 61,154)   
    DRY( 61,155)   DRY( 61,156)   DRY( 61,157)   DRY( 61,158)   DRY( 61,159)   
    DRY( 61,160)   DRY( 61,161)   DRY( 61,162)   DRY( 61,163)   DRY( 61,164)   
    DRY( 61,165)   DRY( 61,166)   DRY( 61,167)   DRY( 61,168)   DRY( 61,169)   
    DRY( 61,170)   DRY( 61,171)   DRY( 61,172)   DRY( 61,173)   DRY( 61,174)   
    DRY( 61,175)   DRY( 61,176)   DRY( 61,177)   DRY( 61,178)   DRY( 61,179)   
    DRY( 61,180)   DRY( 61,181)   DRY( 61,182)   DRY( 61,183)   DRY( 61,184)   
    DRY( 61,185)   DRY( 61,186)   DRY( 61,187)   DRY( 61,188)   DRY( 61,189)   
    DRY( 61,190)   DRY( 61,191)   DRY( 61,192)   DRY( 61,193)   DRY( 61,194)   
    DRY( 61,195)   DRY( 61,196)   DRY( 61,197)   DRY( 61,198)   DRY( 61,199)   
    DRY( 61,200)   DRY( 61,201)   DRY( 61,202)   DRY( 61,203)   DRY( 61,204)   
    DRY( 61,205)   DRY( 61,206)   DRY( 61,207)   DRY( 61,208)   DRY( 61,209)   
    DRY( 61,210)   DRY( 61,211)   DRY( 61,212)   DRY( 61,213)   DRY( 61,214)   
    DRY( 61,215)   DRY( 61,216)   DRY( 61,217)   DRY( 61,218)   DRY( 61,219)   
    DRY( 61,220)   DRY( 62, 49)   DRY( 62, 50)   DRY( 62, 51)   DRY( 62, 52)   
    DRY( 62, 53)   DRY( 62, 54)   DRY( 62, 55)   DRY( 62, 56)   DRY( 62, 57)   
    DRY( 62, 58)   DRY( 62, 59)   DRY( 62, 60)   DRY( 62, 61)   DRY( 62, 62)   
    DRY( 62, 63)   DRY( 62, 64)   DRY( 62, 65)   DRY( 62, 66)   DRY( 62, 67)   
    DRY( 62, 68)   DRY( 62, 82)   DRY( 62, 83)   DRY( 62, 84)   DRY( 62, 85)   
    DRY( 62, 86)   DRY( 62, 87)   DRY( 62, 88)   DRY( 62, 89)   DRY( 62, 90)   
    DRY( 62, 91)   DRY( 62, 92)   DRY( 62, 93)   DRY( 62, 94)   DRY( 62, 95)   
    DRY( 62, 96)   DRY( 62, 97)   DRY( 62, 98)   DRY( 62, 99)   DRY( 62,100)   
    DRY( 62,101)   DRY( 62,102)   DRY( 62,103)   DRY( 62,104)   DRY( 62,105)   
    DRY( 62,106)   DRY( 62,107)   DRY( 62,108)   DRY( 62,109)   DRY( 62,110)   
    DRY( 62,111)   DRY( 62,112)   DRY( 62,113)   DRY( 62,114)   DRY( 62,115)   
    DRY( 62,116)   DRY( 62,117)   DRY( 62,118)   DRY( 62,119)   DRY( 62,120)   
    DRY( 62,121)   DRY( 62,122)   DRY( 62,123)   DRY( 62,124)   DRY( 62,125)   
    DRY( 62,126)   DRY( 62,127)   DRY( 62,128)   DRY( 62,129)   DRY( 62,130)   
    DRY( 62,131)   DRY( 62,132)   DRY( 62,133)   DRY( 62,134)   DRY( 62,135)   
    DRY( 62,136)   DRY( 62,137)   DRY( 62,138)   DRY( 62,139)   DRY( 62,140)   
    DRY( 62,141)   DRY( 62,142)   DRY( 62,143)   DRY( 62,144)   DRY( 62,145)   
    DRY( 62,146)   DRY( 62,147)   DRY( 62,148)   DRY( 62,149)   DRY( 62,150)   
    DRY( 62,151)   DRY( 62,152)   DRY( 62,153)   DRY( 62,154)   DRY( 62,155)   
    DRY( 62,156)   DRY( 62,157)   DRY( 62,158)   DRY( 62,159)   DRY( 62,160)   
    DRY( 62,161)   DRY( 62,162)   DRY( 62,163)   DRY( 62,164)   DRY( 62,165)   
    DRY( 62,166)   DRY( 62,167)   DRY( 62,168)   DRY( 62,169)   DRY( 62,170)   
    DRY( 62,171)   DRY( 62,172)   DRY( 62,173)   DRY( 62,174)   DRY( 62,175)   
    DRY( 62,176)   DRY( 62,177)   DRY( 62,178)   DRY( 62,179)   DRY( 62,180)   
    DRY( 62,181)   DRY( 62,182)   DRY( 62,183)   DRY( 62,184)   DRY( 62,185)   
    DRY( 62,186)   DRY( 62,187)   DRY( 62,188)   DRY( 62,189)   DRY( 62,190)   
    DRY( 62,191)   DRY( 62,192)   DRY( 62,193)   DRY( 62,194)   DRY( 62,195)   
    DRY( 62,196)   DRY( 62,197)   DRY( 62,198)   DRY( 62,199)   DRY( 62,200)   
    DRY( 62,201)   DRY( 62,202)   DRY( 62,203)   DRY( 62,204)   DRY( 62,205)   
    DRY( 62,206)   DRY( 62,207)   DRY( 62,208)   DRY( 62,209)   DRY( 62,210)   
    DRY( 62,211)   DRY( 62,212)   DRY( 62,213)   DRY( 62,214)   DRY( 62,215)   
    DRY( 62,216)   DRY( 62,217)   DRY( 62,218)   DRY( 62,219)   DRY( 62,220)   
    DRY( 63, 85)   DRY( 63, 86)   DRY( 63, 87)   DRY( 63, 88)   DRY( 63, 89)   
    DRY( 63, 90)   DRY( 63, 91)   DRY( 63, 92)   DRY( 63, 93)   DRY( 63, 94)   
    DRY( 63, 95)   DRY( 63, 96)   DRY( 63, 97)   DRY( 63, 98)   DRY( 63, 99)   
    DRY( 63,100)   DRY( 63,101)   DRY( 63,102)   DRY( 63,103)   DRY( 63,104)   
    DRY( 63,105)   DRY( 63,106)   DRY( 63,107)   DRY( 63,108)   DRY( 63,109)   
    DRY( 63,110)   DRY( 63,111)   DRY( 63,112)   DRY( 63,113)   DRY( 63,114)   
    DRY( 63,115)   DRY( 63,116)   DRY( 63,140)   DRY( 63,141)   DRY( 63,142)   
    DRY( 63,143)   DRY( 63,144)   DRY( 63,145)   DRY( 63,146)   DRY( 63,147)   
    DRY( 63,148)   DRY( 63,149)   DRY( 63,150)   DRY( 63,151)   DRY( 63,152)   
    DRY( 63,153)   DRY( 63,154)   DRY( 63,155)   DRY( 63,156)   DRY( 63,157)   
    DRY( 63,158)   DRY( 63,159)   DRY( 63,160)   DRY( 63,161)   DRY( 63,162)   
    DRY( 63,163)   DRY( 63,164)   DRY( 63,165)   DRY( 63,166)   DRY( 63,167)   
    DRY( 63,168)   DRY( 63,169)   DRY( 63,170)   DRY( 63,171)   DRY( 63,172)   
    DRY( 63,173)   DRY( 63,174)   DRY( 63,175)   DRY( 63,176)   DRY( 63,177)   
    DRY( 63,178)   DRY( 63,179)   DRY( 63,180)   DRY( 63,181)   DRY( 63,182)   
    DRY( 63,183)   DRY( 63,184)   DRY( 63,185)   DRY( 63,186)   DRY( 63,187)   
    DRY( 63,188)   DRY( 63,195)   DRY( 63,196)   DRY( 63,197)   DRY( 63,198)   
    DRY( 63,199)   DRY( 63,200)   DRY( 63,201)   DRY( 63,202)   DRY( 63,203)   
    DRY( 63,204)   DRY( 63,205)   DRY( 63,206)   DRY( 63,207)   DRY( 63,208)   
    DRY( 63,209)   DRY( 63,210)   DRY( 63,211)   DRY( 63,212)   DRY( 63,213)   
    DRY( 63,214)   DRY( 63,215)   DRY( 63,216)   DRY( 63,217)   DRY( 63,218)   
    DRY( 63,219)   DRY( 63,220)   DRY( 64, 87)   DRY( 64, 88)   DRY( 64, 89)   
    DRY( 64, 90)   DRY( 64, 91)   DRY( 64, 92)   DRY( 64, 93)   DRY( 64, 94)   
    DRY( 64,104)   DRY( 64,105)   DRY( 64,106)   DRY( 64,107)   DRY( 64,108)   
    DRY( 64,109)   DRY( 64,110)   DRY( 64,111)   DRY( 64,112)   DRY( 64,113)   
    DRY( 64,114)   DRY( 64,142)   DRY( 64,143)   DRY( 64,144)   DRY( 64,145)   
    DRY( 64,146)   DRY( 64,147)   DRY( 64,148)   DRY( 64,149)   DRY( 64,150)   
    DRY( 64,151)   DRY( 64,152)   DRY( 64,153)   DRY( 64,154)   DRY( 64,155)   
    DRY( 64,156)   DRY( 64,157)   DRY( 64,158)   DRY( 64,159)   DRY( 64,160)   
    DRY( 64,161)   DRY( 64,162)   DRY( 64,163)   DRY( 64,164)   DRY( 64,165)   
    DRY( 64,166)   DRY( 64,167)   DRY( 64,168)   DRY( 64,169)   DRY( 64,170)   
    DRY( 64,171)   DRY( 64,172)   DRY( 64,173)   DRY( 64,174)   DRY( 64,175)   
    DRY( 64,176)   DRY( 64,177)   DRY( 64,178)   DRY( 64,179)   DRY( 64,180)   
    DRY( 64,181)   DRY( 64,182)   DRY( 64,183)   DRY( 64,184)   DRY( 64,185)   
    DRY( 64,186)   DRY( 64,203)   DRY( 64,204)   DRY( 64,205)   DRY( 64,206)   
    DRY( 64,207)   DRY( 64,208)   DRY( 64,209)   DRY( 64,210)   DRY( 64,211)   
    DRY( 64,212)   DRY( 64,213)   DRY( 64,214)   DRY( 64,215)   DRY( 64,216)   
    DRY( 64,217)   DRY( 64,218)   DRY( 64,219)   DRY( 64,220)   

 CELL CONVERSIONS FOR ITER.=  3  LAYER= 20  STEP=  1  PERIOD=   1   (ROW,COL)
    DRY( 50,  1)   DRY( 50,  2)   DRY( 50,  3)   DRY( 50,  4)   DRY( 50,  5)   
    DRY( 50,  6)   DRY( 50,  7)   DRY( 50,  8)   DRY( 50,  9)   DRY( 50, 10)   
    DRY( 50, 11)   DRY( 50, 12)   DRY( 50, 13)   DRY( 50, 14)   DRY( 50, 15)   
    DRY( 50, 16)   DRY( 50, 17)   DRY( 50, 18)   DRY( 50, 19)   DRY( 50, 20)   
    DRY( 50, 21)   DRY( 50, 22)   DRY( 50, 23)   DRY( 50, 24)   DRY( 50, 25)   
    DRY( 50, 26)   DRY( 50, 27)   DRY( 50, 28)   DRY( 50, 29)   DRY( 50, 30)   
    DRY( 50, 31)   DRY( 50, 32)   DRY( 51,  1)   DRY( 51,  2)   DRY( 51,  3)   
    DRY( 51,  4)   DRY( 51,  5)   DRY( 51,  6)   DRY( 51,  7)   DRY( 51,  8)   
    DRY( 51,  9)   DRY( 51, 10)   DRY( 51, 11)   DRY( 51, 12)   DRY( 51, 13)   
    DRY( 51, 14)   DRY( 51, 15)   DRY( 51, 16)   DRY( 51, 17)   DRY( 51, 18)   
    DRY( 51, 19)   DRY( 51, 20)   DRY( 51, 21)   DRY( 51, 22)   DRY( 51, 23)   
    DRY( 51, 24)   DRY( 51, 25)   DRY( 51, 26)   DRY( 51, 27)   DRY( 51, 28)   
    DRY( 51, 29)   DRY( 51, 30)   DRY( 51, 31)   DRY( 51, 32)   DRY( 51, 33)   
    DRY( 51, 34)   DRY( 51, 35)   DRY( 51, 36)   DRY( 51, 37)   DRY( 51, 38)   
    DRY( 51, 39)   DRY( 51, 40)   DRY( 51, 41)   DRY( 51, 42)   DRY( 51, 43)   
    DRY( 51, 44)   DRY( 51, 45)   DRY( 51, 46)   DRY( 51, 47)   DRY( 51, 48)   
    DRY( 51, 49)   DRY( 51, 50)   DRY( 51, 51)   DRY( 51, 52)   DRY( 51, 53)   
    DRY( 51, 54)   DRY( 51, 55)   DRY( 51, 56)   DRY( 51, 57)   DRY( 51, 58)   
    DRY( 51, 59)   DRY( 51, 60)   DRY( 51, 61)   DRY( 51, 62)   DRY( 51, 63)   
    DRY( 51, 64)   DRY( 51, 65)   DRY( 51, 66)   DRY( 51, 67)   DRY( 51, 68)   
    DRY( 51, 69)   DRY( 51, 70)   DRY( 51, 71)   DRY( 51, 72)   DRY( 51, 73)   
    DRY( 51, 74)   DRY( 51, 75)   DRY( 51, 76)   DRY( 51, 77)   DRY( 51, 78)   
    DRY( 51, 79)   DRY( 51, 80)   DRY( 51, 81)   DRY( 51, 82)   DRY( 51, 83)   
    DRY( 51, 84)   DRY( 51, 85)   DRY( 51, 86)   DRY( 51, 87)   DRY( 51, 88)   
    DRY( 51, 89)   DRY( 51, 90)   DRY( 51, 91)   DRY( 51, 92)   DRY( 51, 93)   
    DRY( 51, 94)   DRY( 51, 95)   DRY( 51, 96)   DRY( 52,  1)   DRY( 52,  2)   
    DRY( 52,  3)   DRY( 52,  4)   DRY( 52,  5)   DRY( 52,  6)   DRY( 52,  7)   
    DRY( 52,  8)   DRY( 52,  9)   DRY( 52, 10)   DRY( 52, 11)   DRY( 52, 12)   
    DRY( 52, 13)   DRY( 52, 14)   DRY( 52, 15)   DRY( 52, 16)   DRY( 52, 17)   
    DRY( 52, 18)   DRY( 52, 19)   DRY( 52, 20)   DRY( 52, 21)   DRY( 52, 22)   
    DRY( 52, 23)   DRY( 52, 24)   DRY( 52, 25)   DRY( 52, 26)   DRY( 52, 27)   
    DRY( 52, 28)   DRY( 52, 29)   DRY( 52, 30)   DRY( 52, 31)   DRY( 52, 32)   
    DRY( 52, 33)   DRY( 52, 34)   DRY( 52, 35)   DRY( 52, 36)   DRY( 52, 37)   
    DRY( 52, 38)   DRY( 52, 39)   DRY( 52, 40)   DRY( 52, 41)   DRY( 52, 42)   
    DRY( 52, 43)   DRY( 52, 44)   DRY( 52, 45)   DRY( 52, 46)   DRY( 52, 47)   
    DRY( 52, 48)   DRY( 52, 49)   DRY( 52, 50)   DRY( 52, 51)   DRY( 52, 52)   
    DRY( 52, 53)   DRY( 52, 54)   DRY( 52, 55)   DRY( 52, 56)   DRY( 52, 57)   
    DRY( 52, 58)   DRY( 52, 59)   DRY( 52, 60)   DRY( 52, 61)   DRY( 52, 62)   
    DRY( 52, 63)   DRY( 52, 64)   DRY( 52, 65)   DRY( 52, 66)   DRY( 52, 67)   
    DRY( 52, 68)   DRY( 52, 69)   DRY( 52, 70)   DRY( 52, 71)   DRY( 52, 72)   
    DRY( 52, 73)   DRY( 52, 74)   DRY( 52, 75)   DRY( 52, 76)   DRY( 52, 77)   
    DRY( 52, 78)   DRY( 52, 79)   DRY( 52, 80)   DRY( 52, 81)   DRY( 52, 82)   
    DRY( 52, 83)   DRY( 52, 84)   DRY( 52, 85)   DRY( 52, 86)   DRY( 52, 87)   
    DRY( 52, 88)   DRY( 52, 89)   DRY( 52, 90)   DRY( 52, 91)   DRY( 52, 92)   
    DRY( 52, 93)   DRY( 52, 94)   DRY( 52, 95)   DRY( 52, 96)   DRY( 52, 97)   
    DRY( 52, 98)   DRY( 52, 99)   DRY( 52,100)   DRY( 52,101)   DRY( 52,102)   
    DRY( 52,103)   DRY( 52,104)   DRY( 52,105)   DRY( 52,106)   DRY( 52,107)   
    DRY( 52,108)   DRY( 52,109)   DRY( 52,110)   DRY( 52,111)   DRY( 52,112)   
    DRY( 52,113)   DRY( 52,114)   DRY( 52,115)   DRY( 52,116)   DRY( 52,117)   
    DRY( 52,118)   DRY( 52,119)   DRY( 52,120)   DRY( 52,121)   DRY( 52,122)   
    DRY( 52,123)   DRY( 52,124)   DRY( 52,125)   DRY( 52,126)   DRY( 52,127)   
    DRY( 52,128)   DRY( 52,129)   DRY( 52,130)   DRY( 52,131)   DRY( 52,132)   
    DRY( 52,133)   DRY( 52,134)   DRY( 52,135)   DRY( 52,136)   DRY( 52,137)   
    DRY( 52,138)   DRY( 52,139)   DRY( 52,140)   DRY( 52,141)   DRY( 52,142)   
    DRY( 52,143)   DRY( 52,144)   DRY( 52,145)   DRY( 52,146)   DRY( 52,147)   
    DRY( 52,148)   DRY( 52,149)   DRY( 52,150)   DRY( 52,151)   DRY( 52,152)   
    DRY( 52,153)   DRY( 52,154)   DRY( 52,155)   DRY( 52,156)   DRY( 52,157)   
    DRY( 52,158)   DRY( 52,159)   DRY( 52,160)   DRY( 52,161)   DRY( 53,  1)   
    DRY( 53,  2)   DRY( 53,  3)   DRY( 53,  4)   DRY( 53,  5)   DRY( 53,  6)   
    DRY( 53,  7)   DRY( 53,  8)   DRY( 53,  9)   DRY( 53, 10)   DRY( 53, 11)   
    DRY( 53, 12)   DRY( 53, 13)   DRY( 53, 14)   DRY( 53, 15)   DRY( 53, 16)   
    DRY( 53, 17)   DRY( 53, 18)   DRY( 53, 19)   DRY( 53, 20)   DRY( 53, 21)   
    DRY( 53, 22)   DRY( 53, 23)   DRY( 53, 24)   DRY( 53, 25)   DRY( 53, 26)   
    DRY( 53, 27)   DRY( 53, 28)   DRY( 53, 29)   DRY( 53, 30)   DRY( 53, 31)   
    DRY( 53, 32)   DRY( 53, 33)   DRY( 53, 34)   DRY( 53, 35)   DRY( 53, 36)   
    DRY( 53, 37)   DRY( 53, 38)   DRY( 53, 39)   DRY( 53, 40)   DRY( 53, 41)   
    DRY( 53, 42)   DRY( 53, 43)   DRY( 53, 44)   DRY( 53, 45)   DRY( 53, 46)   
    DRY( 53, 47)   DRY( 53, 48)   DRY( 53, 49)   DRY( 53, 50)   DRY( 53, 51)   
    DRY( 53, 52)   DRY( 53, 53)   DRY( 53, 54)   DRY( 53, 55)   DRY( 53, 56)   
    DRY( 53, 57)   DRY( 53, 58)   DRY( 53, 59)   DRY( 53, 60)   DRY( 53, 61)   
    DRY( 53, 62)   DRY( 53, 63)   DRY( 53, 64)   DRY( 53, 65)   DRY( 53, 66)   
    DRY( 53, 67)   DRY( 53, 68)   DRY( 53, 69)   DRY( 53, 70)   DRY( 53, 71)   
    DRY( 53, 72)   DRY( 53, 73)   DRY( 53, 74)   DRY( 53, 75)   DRY( 53, 76)   
    DRY( 53, 77)   DRY( 53, 78)   DRY( 53, 79)   DRY( 53, 80)   DRY( 53, 81)   
    DRY( 53, 82)   DRY( 53, 83)   DRY( 53, 84)   DRY( 53, 85)   DRY( 53, 86)   
    DRY( 53, 87)   DRY( 53, 88)   DRY( 53, 89)   DRY( 53, 90)   DRY( 53, 91)   
    DRY( 53, 92)   DRY( 53, 93)   DRY( 53, 94)   DRY( 53, 95)   DRY( 53, 96)   
    DRY( 53, 97)   DRY( 53, 98)   DRY( 53, 99)   DRY( 53,100)   DRY( 53,101)   
    DRY( 53,102)   DRY( 53,103)   DRY( 53,104)   DRY( 53,105)   DRY( 53,106)   
    DRY( 53,107)   DRY( 53,108)   DRY( 53,109)   DRY( 53,110)   DRY( 53,111)   
    DRY( 53,112)   DRY( 53,113)   DRY( 53,114)   DRY( 53,115)   DRY( 53,116)   
    DRY( 53,117)   DRY( 53,118)   DRY( 53,119)   DRY( 53,120)   DRY( 53,121)   
    DRY( 53,122)   DRY( 53,123)   DRY( 53,124)   DRY( 53,125)   DRY( 53,126)   
    DRY( 53,127)   DRY( 53,128)   DRY( 53,129)   DRY( 53,130)   DRY( 53,131)   
    DRY( 53,132)   DRY( 53,133)   DRY( 53,134)   DRY( 53,135)   DRY( 53,136)   
    DRY( 53,137)   DRY( 53,138)   DRY( 53,139)   DRY( 53,140)   DRY( 53,141)   
    DRY( 53,142)   DRY( 53,143)   DRY( 53,144)   DRY( 53,145)   DRY( 53,146)   
    DRY( 53,147)   DRY( 53,148)   DRY( 53,149)   DRY( 53,150)   DRY( 53,151)   
    DRY( 53,152)   DRY( 53,153)   DRY( 53,154)   DRY( 53,155)   DRY( 53,156)   
    DRY( 53,157)   DRY( 53,158)   DRY( 53,159)   DRY( 53,160)   DRY( 53,161)   
    DRY( 53,162)   DRY( 53,163)   DRY( 53,164)   DRY( 53,165)   DRY( 53,166)   
    DRY( 53,167)   DRY( 53,168)   DRY( 53,169)   DRY( 53,170)   DRY( 53,171)   
    DRY( 53,172)   DRY( 53,173)   DRY( 53,174)   DRY( 53,175)   DRY( 53,176)   
    DRY( 53,177)   DRY( 53,178)   DRY( 53,179)   DRY( 53,180)   DRY( 53,181)   
    DRY( 53,182)   DRY( 53,183)   DRY( 53,184)   DRY( 53,185)   DRY( 53,186)   
    DRY( 53,187)   DRY( 53,188)   DRY( 53,189)   DRY( 53,190)   DRY( 53,191)   
    DRY( 53,192)   DRY( 53,193)   DRY( 53,194)   DRY( 53,195)   DRY( 53,196)   
    DRY( 53,197)   DRY( 53,198)   DRY( 53,199)   DRY( 53,200)   DRY( 53,201)   
    DRY( 53,202)   DRY( 53,203)   DRY( 53,204)   DRY( 53,205)   DRY( 53,206)   
    DRY( 53,207)   DRY( 53,208)   DRY( 53,209)   DRY( 53,210)   DRY( 53,211)   
    DRY( 53,212)   DRY( 53,213)   DRY( 53,214)   DRY( 53,215)   DRY( 53,216)   
    DRY( 53,217)   DRY( 54,  1)   DRY( 54,  2)   DRY( 54,  3)   DRY( 54,  4)   
    DRY( 54,  5)   DRY( 54,  6)   DRY( 54,  7)   DRY( 54,  8)   DRY( 54,  9)   
    DRY( 54, 10)   DRY( 54, 11)   DRY( 54, 12)   DRY( 54, 13)   DRY( 54, 14)   
    DRY( 54, 15)   DRY( 54, 16)   DRY( 54, 17)   DRY( 54, 18)   DRY( 54, 19)   
    DRY( 54, 20)   DRY( 54, 21)   DRY( 54, 22)   DRY( 54, 23)   DRY( 54, 24)   
    DRY( 54, 25)   DRY( 54, 26)   DRY( 54, 27)   DRY( 54, 28)   DRY( 54, 29)   
    DRY( 54, 30)   DRY( 54, 31)   DRY( 54, 32)   DRY( 54, 33)   DRY( 54, 34)   
    DRY( 54, 35)   DRY( 54, 36)   DRY( 54, 37)   DRY( 54, 38)   DRY( 54, 39)   
    DRY( 54, 40)   DRY( 54, 41)   DRY( 54, 42)   DRY( 54, 43)   DRY( 54, 44)   
    DRY( 54, 45)   DRY( 54, 46)   DRY( 54, 47)   DRY( 54, 48)   DRY( 54, 49)   
    DRY( 54, 50)   DRY( 54, 51)   DRY( 54, 52)   DRY( 54, 53)   DRY( 54, 54)   
    DRY( 54, 55)   DRY( 54, 56)   DRY( 54, 57)   DRY( 54, 58)   DRY( 54, 59)   
    DRY( 54, 60)   DRY( 54, 61)   DRY( 54, 62)   DRY( 54, 63)   DRY( 54, 64)   
    DRY( 54, 65)   DRY( 54, 66)   DRY( 54, 67)   DRY( 54, 68)   DRY( 54, 69)   
    DRY( 54, 70)   DRY( 54, 71)   DRY( 54, 72)   DRY( 54, 73)   DRY( 54, 74)   
    DRY( 54, 75)   DRY( 54, 76)   DRY( 54, 77)   DRY( 54, 78)   DRY( 54, 79)   
    DRY( 54, 80)   DRY( 54, 81)   DRY( 54, 82)   DRY( 54, 83)   DRY( 54, 84)   
    DRY( 54, 85)   DRY( 54, 86)   DRY( 54, 87)   DRY( 54, 88)   DRY( 54, 89)   
    DRY( 54, 90)   DRY( 54, 91)   DRY( 54, 92)   DRY( 54, 93)   DRY( 54, 94)   
    DRY( 54, 95)   DRY( 54, 96)   DRY( 54, 97)   DRY( 54, 98)   DRY( 54, 99)   
    DRY( 54,100)   DRY( 54,101)   DRY( 54,102)   DRY( 54,103)   DRY( 54,104)   
    DRY( 54,105)   DRY( 54,106)   DRY( 54,107)   DRY( 54,108)   DRY( 54,109)   
    DRY( 54,110)   DRY( 54,111)   DRY( 54,112)   DRY( 54,113)   DRY( 54,114)   
    DRY( 54,115)   DRY( 54,116)   DRY( 54,117)   DRY( 54,118)   DRY( 54,119)   
    DRY( 54,120)   DRY( 54,121)   DRY( 54,122)   DRY( 54,123)   DRY( 54,124)   
    DRY( 54,125)   DRY( 54,126)   DRY( 54,127)   DRY( 54,128)   DRY( 54,129)   
    DRY( 54,130)   DRY( 54,131)   DRY( 54,132)   DRY( 54,133)   DRY( 54,134)   
    DRY( 54,135)   DRY( 54,136)   DRY( 54,137)   DRY( 54,138)   DRY( 54,139)   
    DRY( 54,140)   DRY( 54,141)   DRY( 54,142)   DRY( 54,143)   DRY( 54,144)   
    DRY( 54,145)   DRY( 54,146)   DRY( 54,147)   DRY( 54,148)   DRY( 54,149)   
    DRY( 54,150)   DRY( 54,151)   DRY( 54,152)   DRY( 54,153)   DRY( 54,154)   
    DRY( 54,155)   DRY( 54,156)   DRY( 54,157)   DRY( 54,158)   DRY( 54,159)   
    DRY( 54,160)   DRY( 54,161)   DRY( 54,162)   DRY( 54,163)   DRY( 54,164)   
    DRY( 54,165)   DRY( 54,166)   DRY( 54,167)   DRY( 54,168)   DRY( 54,169)   
    DRY( 54,170)   DRY( 54,171)   DRY( 54,172)   DRY( 54,173)   DRY( 54,174)   
    DRY( 54,175)   DRY( 54,176)   DRY( 54,177)   DRY( 54,178)   DRY( 54,179)   
    DRY( 54,180)   DRY( 54,181)   DRY( 54,182)   DRY( 54,183)   DRY( 54,184)   
    DRY( 54,185)   DRY( 54,186)   DRY( 54,187)   DRY( 54,188)   DRY( 54,189)   
    DRY( 54,190)   DRY( 54,191)   DRY( 54,192)   DRY( 54,193)   DRY( 54,194)   
    DRY( 54,195)   DRY( 54,196)   DRY( 54,197)   DRY( 54,198)   DRY( 54,199)   
    DRY( 54,200)   DRY( 54,201)   DRY( 54,202)   DRY( 54,203)   DRY( 54,204)   
    DRY( 54,205)   DRY( 54,206)   DRY( 54,207)   DRY( 54,208)   DRY( 54,209)   
    DRY( 54,210)   DRY( 54,211)   DRY( 54,212)   DRY( 54,213)   DRY( 54,214)   
    DRY( 54,215)   DRY( 54,216)   DRY( 54,217)   DRY( 54,218)   DRY( 54,219)   
    DRY( 54,220)   DRY( 55,  1)   DRY( 55,  2)   DRY( 55,  3)   DRY( 55,  4)   
    DRY( 55,  5)   DRY( 55,  6)   DRY( 55,  7)   DRY( 55,  8)   DRY( 55,  9)   
    DRY( 55, 10)   DRY( 55, 11)   DRY( 55, 12)   DRY( 55, 13)   DRY( 55, 14)   
    DRY( 55, 15)   DRY( 55, 16)   DRY( 55, 17)   DRY( 55, 18)   DRY( 55, 19)   
    DRY( 55, 20)   DRY( 55, 21)   DRY( 55, 22)   DRY( 55, 23)   DRY( 55, 24)   
    DRY( 55, 25)   DRY( 55, 26)   DRY( 55, 27)   DRY( 55, 28)   DRY( 55, 29)   
    DRY( 55, 30)   DRY( 55, 31)   DRY( 55, 32)   DRY( 55, 33)   DRY( 55, 34)   
    DRY( 55, 35)   DRY( 55, 36)   DRY( 55, 37)   DRY( 55, 38)   DRY( 55, 39)   
    DRY( 55, 40)   DRY( 55, 41)   DRY( 55, 42)   DRY( 55, 43)   DRY( 55, 44)   
    DRY( 55, 45)   DRY( 55, 46)   DRY( 55, 47)   DRY( 55, 48)   DRY( 55, 49)   
    DRY( 55, 50)   DRY( 55, 51)   DRY( 55, 52)   DRY( 55, 53)   DRY( 55, 54)   
    DRY( 55, 55)   DRY( 55, 56)   DRY( 55, 57)   DRY( 55, 58)   DRY( 55, 59)   
    DRY( 55, 60)   DRY( 55, 61)   DRY( 55, 62)   DRY( 55, 63)   DRY( 55, 64)   
    DRY( 55, 65)   DRY( 55, 66)   DRY( 55, 67)   DRY( 55, 68)   DRY( 55, 69)   
    DRY( 55, 70)   DRY( 55, 71)   DRY( 55, 72)   DRY( 55, 73)   DRY( 55, 74)   
    DRY( 55, 75)   DRY( 55, 76)   DRY( 55, 77)   DRY( 55, 78)   DRY( 55, 79)   
    DRY( 55, 80)   DRY( 55, 81)   DRY( 55, 82)   DRY( 55, 83)   DRY( 55, 84)   
    DRY( 55, 85)   DRY( 55, 86)   DRY( 55, 87)   DRY( 55, 88)   DRY( 55, 89)   
    DRY( 55, 90)   DRY( 55, 91)   DRY( 55, 92)   DRY( 55, 93)   DRY( 55, 94)   
    DRY( 55, 95)   DRY( 55, 96)   DRY( 55, 97)   DRY( 55, 98)   DRY( 55, 99)   
    DRY( 55,100)   DRY( 55,101)   DRY( 55,102)   DRY( 55,103)   DRY( 55,104)   
    DRY( 55,105)   DRY( 55,106)   DRY( 55,107)   DRY( 55,108)   DRY( 55,109)   
    DRY( 55,110)   DRY( 55,111)   DRY( 55,112)   DRY( 55,113)   DRY( 55,114)   
    DRY( 55,115)   DRY( 55,116)   DRY( 55,117)   DRY( 55,118)   DRY( 55,119)   
    DRY( 55,120)   DRY( 55,121)   DRY( 55,122)   DRY( 55,123)   DRY( 55,124)   
    DRY( 55,125)   DRY( 55,126)   DRY( 55,127)   DRY( 55,128)   DRY( 55,129)   
    DRY( 55,130)   DRY( 55,131)   DRY( 55,132)   DRY( 55,133)   DRY( 55,134)   
    DRY( 55,135)   DRY( 55,136)   DRY( 55,137)   DRY( 55,138)   DRY( 55,139)   
    DRY( 55,140)   DRY( 55,141)   DRY( 55,142)   DRY( 55,143)   DRY( 55,144)   
    DRY( 55,145)   DRY( 55,146)   DRY( 55,147)   DRY( 55,148)   DRY( 55,149)   
    DRY( 55,150)   DRY( 55,151)   DRY( 55,152)   DRY( 55,153)   DRY( 55,154)   
    DRY( 55,155)   DRY( 55,156)   DRY( 55,157)   DRY( 55,158)   DRY( 55,159)   
    DRY( 55,160)   DRY( 55,161)   DRY( 55,162)   DRY( 55,163)   DRY( 55,164)   
    DRY( 55,165)   DRY( 55,166)   DRY( 55,167)   DRY( 55,168)   DRY( 55,169)   
    DRY( 55,170)   DRY( 55,171)   DRY( 55,172)   DRY( 55,173)   DRY( 55,174)   
    DRY( 55,175)   DRY( 55,176)   DRY( 55,177)   DRY( 55,178)   DRY( 55,179)   
    DRY( 55,180)   DRY( 55,181)   DRY( 55,182)   DRY( 55,183)   DRY( 55,184)   
    DRY( 55,185)   DRY( 55,186)   DRY( 55,187)   DRY( 55,188)   DRY( 55,189)   
    DRY( 55,190)   DRY( 55,191)   DRY( 55,192)   DRY( 55,193)   DRY( 55,194)   
    DRY( 55,195)   DRY( 55,196)   DRY( 55,197)   DRY( 55,198)   DRY( 55,199)   
    DRY( 55,200)   DRY( 55,201)   DRY( 55,202)   DRY( 55,203)   DRY( 55,204)   
    DRY( 55,205)   DRY( 55,206)   DRY( 55,207)   DRY( 55,208)   DRY( 55,209)   
    DRY( 55,210)   DRY( 55,211)   DRY( 55,212)   DRY( 55,213)   DRY( 55,214)   
    DRY( 55,215)   DRY( 55,216)   DRY( 55,217)   DRY( 55,218)   DRY( 55,219)   
    DRY( 55,220)   DRY( 56,  1)   DRY( 56,  2)   DRY( 56,  3)   DRY( 56,  4)   
    DRY( 56,  5)   DRY( 56,  6)   DRY( 56,  7)   DRY( 56,  8)   DRY( 56,  9)   
    DRY( 56, 10)   DRY( 56, 11)   DRY( 56, 12)   DRY( 56, 13)   DRY( 56, 14)   
    DRY( 56, 15)   DRY( 56, 16)   DRY( 56, 17)   DRY( 56, 18)   DRY( 56, 19)   
    DRY( 56, 20)   DRY( 56, 21)   DRY( 56, 22)   DRY( 56, 23)   DRY( 56, 24)   
    DRY( 56, 25)   DRY( 56, 26)   DRY( 56, 27)   DRY( 56, 28)   DRY( 56, 29)   
    DRY( 56, 30)   DRY( 56, 31)   DRY( 56, 32)   DRY( 56, 33)   DRY( 56, 34)   
    DRY( 56, 35)   DRY( 56, 36)   DRY( 56, 37)   DRY( 56, 38)   DRY( 56, 39)   
    DRY( 56, 40)   DRY( 56, 41)   DRY( 56, 42)   DRY( 56, 43)   DRY( 56, 44)   
    DRY( 56, 45)   DRY( 56, 46)   DRY( 56, 47)   DRY( 56, 48)   DRY( 56, 49)   
    DRY( 56, 50)   DRY( 56, 51)   DRY( 56, 52)   DRY( 56, 53)   DRY( 56, 54)   
    DRY( 56, 55)   DRY( 56, 56)   DRY( 56, 57)   DRY( 56, 58)   DRY( 56, 59)   
    DRY( 56, 60)   DRY( 56, 61)   DRY( 56, 62)   DRY( 56, 63)   DRY( 56, 64)   
    DRY( 56, 65)   DRY( 56, 66)   DRY( 56, 67)   DRY( 56, 68)   DRY( 56, 69)   
    DRY( 56, 70)   DRY( 56, 71)   DRY( 56, 72)   DRY( 56, 73)   DRY( 56, 74)   
    DRY( 56, 75)   DRY( 56, 76)   DRY( 56, 77)   DRY( 56, 78)   DRY( 56, 79)   
    DRY( 56, 80)   DRY( 56, 81)   DRY( 56, 82)   DRY( 56, 83)   DRY( 56, 84)   
    DRY( 56, 85)   DRY( 56, 86)   DRY( 56, 87)   DRY( 56, 88)   DRY( 56, 89)   
    DRY( 56, 90)   DRY( 56, 91)   DRY( 56, 92)   DRY( 56, 93)   DRY( 56, 94)   
    DRY( 56, 95)   DRY( 56, 96)   DRY( 56, 97)   DRY( 56, 98)   DRY( 56, 99)   
    DRY( 56,100)   DRY( 56,101)   DRY( 56,102)   DRY( 56,103)   DRY( 56,104)   
    DRY( 56,105)   DRY( 56,106)   DRY( 56,107)   DRY( 56,108)   DRY( 56,109)   
    DRY( 56,110)   DRY( 56,111)   DRY( 56,112)   DRY( 56,113)   DRY( 56,114)   
    DRY( 56,115)   DRY( 56,116)   DRY( 56,117)   DRY( 56,118)   DRY( 56,119)   
    DRY( 56,120)   DRY( 56,121)   DRY( 56,122)   DRY( 56,123)   DRY( 56,124)   
    DRY( 56,125)   DRY( 56,126)   DRY( 56,127)   DRY( 56,128)   DRY( 56,129)   
    DRY( 56,130)   DRY( 56,131)   DRY( 56,132)   DRY( 56,133)   DRY( 56,134)   
    DRY( 56,135)   DRY( 56,136)   DRY( 56,137)   DRY( 56,138)   DRY( 56,139)   
    DRY( 56,140)   DRY( 56,141)   DRY( 56,142)   DRY( 56,143)   DRY( 56,144)   
    DRY( 56,145)   DRY( 56,146)   DRY( 56,147)   DRY( 56,148)   DRY( 56,149)   
    DRY( 56,150)   DRY( 56,151)   DRY( 56,152)   DRY( 56,153)   DRY( 56,154)   
    DRY( 56,155)   DRY( 56,156)   DRY( 56,157)   DRY( 56,158)   DRY( 56,159)   
    DRY( 56,160)   DRY( 56,161)   DRY( 56,162)   DRY( 56,163)   DRY( 56,164)   
    DRY( 56,165)   DRY( 56,166)   DRY( 56,167)   DRY( 56,168)   DRY( 56,169)   
    DRY( 56,170)   DRY( 56,171)   DRY( 56,172)   DRY( 56,173)   DRY( 56,174)   
    DRY( 56,175)   DRY( 56,176)   DRY( 56,177)   DRY( 56,178)   DRY( 56,179)   
    DRY( 56,180)   DRY( 56,181)   DRY( 56,182)   DRY( 56,183)   DRY( 56,184)   
    DRY( 56,185)   DRY( 56,186)   DRY( 56,187)   DRY( 56,188)   DRY( 56,189)   
    DRY( 56,190)   DRY( 56,191)   DRY( 56,192)   DRY( 56,193)   DRY( 56,194)   
    DRY( 56,195)   DRY( 56,196)   DRY( 56,197)   DRY( 56,198)   DRY( 56,199)   
    DRY( 56,200)   DRY( 56,201)   DRY( 56,202)   DRY( 56,203)   DRY( 56,204)   
    DRY( 56,205)   DRY( 56,206)   DRY( 56,207)   DRY( 56,208)   DRY( 56,209)   
    DRY( 56,210)   DRY( 56,211)   DRY( 56,212)   DRY( 56,213)   DRY( 56,214)   
    DRY( 56,215)   DRY( 56,216)   DRY( 56,217)   DRY( 56,218)   DRY( 56,219)   
    DRY( 56,220)   DRY( 57,  1)   DRY( 57,  2)   DRY( 57,  3)   DRY( 57,  4)   
    DRY( 57,  5)   DRY( 57,  6)   DRY( 57,  7)   DRY( 57,  8)   DRY( 57,  9)   
    DRY( 57, 10)   DRY( 57, 11)   DRY( 57, 12)   DRY( 57, 13)   DRY( 57, 14)   
    DRY( 57, 15)   DRY( 57, 16)   DRY( 57, 17)   DRY( 57, 18)   DRY( 57, 19)   
    DRY( 57, 20)   DRY( 57, 21)   DRY( 57, 22)   DRY( 57, 23)   DRY( 57, 24)   
    DRY( 57, 25)   DRY( 57, 26)   DRY( 57, 27)   DRY( 57, 28)   DRY( 57, 29)   
    DRY( 57, 30)   DRY( 57, 31)   DRY( 57, 32)   DRY( 57, 33)   DRY( 57, 34)   
    DRY( 57, 35)   DRY( 57, 36)   DRY( 57, 37)   DRY( 57, 38)   DRY( 57, 39)   
    DRY( 57, 40)   DRY( 57, 41)   DRY( 57, 42)   DRY( 57, 43)   DRY( 57, 44)   
    DRY( 57, 45)   DRY( 57, 46)   DRY( 57, 47)   DRY( 57, 48)   DRY( 57, 49)   
    DRY( 57, 50)   DRY( 57, 51)   DRY( 57, 52)   DRY( 57, 53)   DRY( 57, 54)   
    DRY( 57, 55)   DRY( 57, 56)   DRY( 57, 57)   DRY( 57, 58)   DRY( 57, 59)   
    DRY( 57, 60)   DRY( 57, 61)   DRY( 57, 62)   DRY( 57, 63)   DRY( 57, 64)   
    DRY( 57, 65)   DRY( 57, 66)   DRY( 57, 67)   DRY( 57, 68)   DRY( 57, 69)   
    DRY( 57, 70)   DRY( 57, 71)   DRY( 57, 72)   DRY( 57, 73)   DRY( 57, 74)   
    DRY( 57, 75)   DRY( 57, 76)   DRY( 57, 77)   DRY( 57, 78)   DRY( 57, 79)   
    DRY( 57, 80)   DRY( 57, 81)   DRY( 57, 82)   DRY( 57, 83)   DRY( 57, 84)   
    DRY( 57, 85)   DRY( 57, 86)   DRY( 57, 87)   DRY( 57, 88)   DRY( 57, 89)   
    DRY( 57, 90)   DRY( 57, 91)   DRY( 57, 92)   DRY( 57, 93)   DRY( 57, 94)   
    DRY( 57, 95)   DRY( 57, 96)   DRY( 57, 97)   DRY( 57, 98)   DRY( 57, 99)   
    DRY( 57,100)   DRY( 57,101)   DRY( 57,102)   DRY( 57,103)   DRY( 57,104)   
    DRY( 57,105)   DRY( 57,106)   DRY( 57,107)   DRY( 57,108)   DRY( 57,109)   
    DRY( 57,110)   DRY( 57,111)   DRY( 57,112)   DRY( 57,113)   DRY( 57,114)   
    DRY( 57,115)   DRY( 57,116)   DRY( 57,117)   DRY( 57,118)   DRY( 57,119)   
    DRY( 57,120)   DRY( 57,121)   DRY( 57,122)   DRY( 57,123)   DRY( 57,124)   
    DRY( 57,125)   DRY( 57,126)   DRY( 57,127)   DRY( 57,128)   DRY( 57,129)   
    DRY( 57,130)   DRY( 57,131)   DRY( 57,132)   DRY( 57,133)   DRY( 57,134)   
    DRY( 57,135)   DRY( 57,136)   DRY( 57,137)   DRY( 57,138)   DRY( 57,139)   
    DRY( 57,140)   DRY( 57,141)   DRY( 57,142)   DRY( 57,143)   DRY( 57,144)   
    DRY( 57,145)   DRY( 57,146)   DRY( 57,147)   DRY( 57,148)   DRY( 57,149)   
    DRY( 57,150)   DRY( 57,151)   DRY( 57,152)   DRY( 57,153)   DRY( 57,154)   
    DRY( 57,155)   DRY( 57,156)   DRY( 57,157)   DRY( 57,158)   DRY( 57,159)   
    DRY( 57,160)   DRY( 57,161)   DRY( 57,162)   DRY( 57,163)   DRY( 57,164)   
    DRY( 57,165)   DRY( 57,166)   DRY( 57,167)   DRY( 57,168)   DRY( 57,169)   
    DRY( 57,170)   DRY( 57,171)   DRY( 57,172)   DRY( 57,173)   DRY( 57,174)   
    DRY( 57,175)   DRY( 57,176)   DRY( 57,177)   DRY( 57,178)   DRY( 57,179)   
    DRY( 57,180)   DRY( 57,181)   DRY( 57,182)   DRY( 57,183)   DRY( 57,184)   
    DRY( 57,185)   DRY( 57,186)   DRY( 57,187)   DRY( 57,188)   DRY( 57,189)   
    DRY( 57,190)   DRY( 57,191)   DRY( 57,192)   DRY( 57,193)   DRY( 57,194)   
    DRY( 57,195)   DRY( 57,196)   DRY( 57,197)   DRY( 57,198)   DRY( 57,199)   
    DRY( 57,200)   DRY( 57,201)   DRY( 57,202)   DRY( 57,203)   DRY( 57,204)   
    DRY( 57,205)   DRY( 57,206)   DRY( 57,207)   DRY( 57,208)   DRY( 57,209)   
    DRY( 57,210)   DRY( 57,211)   DRY( 57,212)   DRY( 57,213)   DRY( 57,214)   
    DRY( 57,215)   DRY( 57,216)   DRY( 57,217)   DRY( 57,218)   DRY( 57,219)   
    DRY( 57,220)   DRY( 58,  1)   DRY( 58,  2)   DRY( 58,  3)   DRY( 58,  4)   
    DRY( 58,  5)   DRY( 58,  6)   DRY( 58,  7)   DRY( 58,  8)   DRY( 58,  9)   
    DRY( 58, 10)   DRY( 58, 11)   DRY( 58, 12)   DRY( 58, 13)   DRY( 58, 14)   
    DRY( 58, 15)   DRY( 58, 16)   DRY( 58, 17)   DRY( 58, 18)   DRY( 58, 19)   
    DRY( 58, 20)   DRY( 58, 21)   DRY( 58, 22)   DRY( 58, 23)   DRY( 58, 24)   
    DRY( 58, 25)   DRY( 58, 26)   DRY( 58, 27)   DRY( 58, 28)   DRY( 58, 29)   
    DRY( 58, 30)   DRY( 58, 31)   DRY( 58, 32)   DRY( 58, 33)   DRY( 58, 34)   
    DRY( 58, 35)   DRY( 58, 36)   DRY( 58, 37)   DRY( 58, 38)   DRY( 58, 39)   
    DRY( 58, 40)   DRY( 58, 41)   DRY( 58, 42)   DRY( 58, 43)   DRY( 58, 44)   
    DRY( 58, 45)   DRY( 58, 46)   DRY( 58, 47)   DRY( 58, 48)   DRY( 58, 49)   
    DRY( 58, 50)   DRY( 58, 51)   DRY( 58, 52)   DRY( 58, 53)   DRY( 58, 54)   
    DRY( 58, 55)   DRY( 58, 56)   DRY( 58, 57)   DRY( 58, 58)   DRY( 58, 59)   
    DRY( 58, 60)   DRY( 58, 61)   DRY( 58, 62)   DRY( 58, 63)   DRY( 58, 64)   
    DRY( 58, 65)   DRY( 58, 66)   DRY( 58, 67)   DRY( 58, 68)   DRY( 58, 69)   
    DRY( 58, 70)   DRY( 58, 71)   DRY( 58, 72)   DRY( 58, 73)   DRY( 58, 74)   
    DRY( 58, 75)   DRY( 58, 76)   DRY( 58, 77)   DRY( 58, 78)   DRY( 58, 79)   
    DRY( 58, 80)   DRY( 58, 81)   DRY( 58, 82)   DRY( 58, 83)   DRY( 58, 84)   
    DRY( 58, 85)   DRY( 58, 86)   DRY( 58, 87)   DRY( 58, 88)   DRY( 58, 89)   
    DRY( 58, 90)   DRY( 58, 91)   DRY( 58, 92)   DRY( 58, 93)   DRY( 58, 94)   
    DRY( 58, 95)   DRY( 58, 96)   DRY( 58, 97)   DRY( 58, 98)   DRY( 58, 99)   
    DRY( 58,100)   DRY( 58,101)   DRY( 58,102)   DRY( 58,103)   DRY( 58,104)   
    DRY( 58,105)   DRY( 58,106)   DRY( 58,107)   DRY( 58,108)   DRY( 58,109)   
    DRY( 58,110)   DRY( 58,111)   DRY( 58,112)   DRY( 58,113)   DRY( 58,114)   
    DRY( 58,115)   DRY( 58,116)   DRY( 58,117)   DRY( 58,118)   DRY( 58,119)   
    DRY( 58,120)   DRY( 58,121)   DRY( 58,122)   DRY( 58,123)   DRY( 58,124)   
    DRY( 58,125)   DRY( 58,126)   DRY( 58,127)   DRY( 58,128)   DRY( 58,129)   
    DRY( 58,130)   DRY( 58,131)   DRY( 58,132)   DRY( 58,133)   DRY( 58,134)   
    DRY( 58,135)   DRY( 58,136)   DRY( 58,137)   DRY( 58,138)   DRY( 58,139)   
    DRY( 58,140)   DRY( 58,141)   DRY( 58,142)   DRY( 58,143)   DRY( 58,144)   
    DRY( 58,145)   DRY( 58,146)   DRY( 58,147)   DRY( 58,148)   DRY( 58,149)   
    DRY( 58,150)   DRY( 58,151)   DRY( 58,152)   DRY( 58,153)   DRY( 58,154)   
    DRY( 58,155)   DRY( 58,156)   DRY( 58,157)   DRY( 58,158)   DRY( 58,159)   
    DRY( 58,160)   DRY( 58,161)   DRY( 58,162)   DRY( 58,163)   DRY( 58,164)   
    DRY( 58,165)   DRY( 58,166)   DRY( 58,167)   DRY( 58,168)   DRY( 58,169)   
    DRY( 58,170)   DRY( 58,171)   DRY( 58,172)   DRY( 58,173)   DRY( 58,174)   
    DRY( 58,175)   DRY( 58,176)   DRY( 58,177)   DRY( 58,178)   DRY( 58,179)   
    DRY( 58,180)   DRY( 58,181)   DRY( 58,182)   DRY( 58,183)   DRY( 58,184)   
    DRY( 58,185)   DRY( 58,186)   DRY( 58,187)   DRY( 58,188)   DRY( 58,189)   
    DRY( 58,190)   DRY( 58,191)   DRY( 58,192)   DRY( 58,193)   DRY( 58,194)   
    DRY( 58,195)   DRY( 58,196)   DRY( 58,197)   DRY( 58,198)   DRY( 58,199)   
    DRY( 58,200)   DRY( 58,201)   DRY( 58,202)   DRY( 58,203)   DRY( 58,204)   
    DRY( 58,205)   DRY( 58,206)   DRY( 58,207)   DRY( 58,208)   DRY( 58,209)   
    DRY( 58,210)   DRY( 58,211)   DRY( 58,212)   DRY( 58,213)   DRY( 58,214)   
    DRY( 58,215)   DRY( 58,216)   DRY( 58,217)   DRY( 58,218)   DRY( 58,219)   
    DRY( 58,220)   DRY( 59,  1)   DRY( 59,  2)   DRY( 59,  3)   DRY( 59,  4)   
    DRY( 59,  5)   DRY( 59,  6)   DRY( 59,  7)   DRY( 59,  8)   DRY( 59,  9)   
    DRY( 59, 10)   DRY( 59, 11)   DRY( 59, 12)   DRY( 59, 13)   DRY( 59, 14)   
    DRY( 59, 15)   DRY( 59, 16)   DRY( 59, 17)   DRY( 59, 18)   DRY( 59, 19)   
    DRY( 59, 20)   DRY( 59, 21)   DRY( 59, 22)   DRY( 59, 23)   DRY( 59, 24)   
    DRY( 59, 25)   DRY( 59, 26)   DRY( 59, 27)   DRY( 59, 28)   DRY( 59, 29)   
    DRY( 59, 30)   DRY( 59, 31)   DRY( 59, 32)   DRY( 59, 33)   DRY( 59, 34)   
    DRY( 59, 35)   DRY( 59, 36)   DRY( 59, 37)   DRY( 59, 38)   DRY( 59, 39)   
    DRY( 59, 40)   DRY( 59, 41)   DRY( 59, 42)   DRY( 59, 43)   DRY( 59, 44)   
    DRY( 59, 45)   DRY( 59, 46)   DRY( 59, 47)   DRY( 59, 48)   DRY( 59, 49)   
    DRY( 59, 50)   DRY( 59, 51)   DRY( 59, 52)   DRY( 59, 53)   DRY( 59, 54)   
    DRY( 59, 55)   DRY( 59, 56)   DRY( 59, 57)   DRY( 59, 58)   DRY( 59, 59)   
    DRY( 59, 60)   DRY( 59, 61)   DRY( 59, 62)   DRY( 59, 63)   DRY( 59, 64)   
    DRY( 59, 65)   DRY( 59, 66)   DRY( 59, 67)   DRY( 59, 68)   DRY( 59, 69)   
    DRY( 59, 70)   DRY( 59, 71)   DRY( 59, 72)   DRY( 59, 73)   DRY( 59, 74)   
    DRY( 59, 75)   DRY( 59, 76)   DRY( 59, 77)   DRY( 59, 78)   DRY( 59, 79)   
    DRY( 59, 80)   DRY( 59, 81)   DRY( 59, 82)   DRY( 59, 83)   DRY( 59, 84)   
    DRY( 59, 85)   DRY( 59, 86)   DRY( 59, 87)   DRY( 59, 88)   DRY( 59, 89)   
    DRY( 59, 90)   DRY( 59, 91)   DRY( 59, 92)   DRY( 59, 93)   DRY( 59, 94)   
    DRY( 59, 95)   DRY( 59, 96)   DRY( 59, 97)   DRY( 59, 98)   DRY( 59, 99)   
    DRY( 59,100)   DRY( 59,101)   DRY( 59,102)   DRY( 59,103)   DRY( 59,104)   
    DRY( 59,105)   DRY( 59,106)   DRY( 59,107)   DRY( 59,108)   DRY( 59,109)   
    DRY( 59,110)   DRY( 59,111)   DRY( 59,112)   DRY( 59,113)   DRY( 59,114)   
    DRY( 59,115)   DRY( 59,116)   DRY( 59,117)   DRY( 59,118)   DRY( 59,119)   
    DRY( 59,120)   DRY( 59,121)   DRY( 59,122)   DRY( 59,123)   DRY( 59,124)   
    DRY( 59,125)   DRY( 59,126)   DRY( 59,127)   DRY( 59,128)   DRY( 59,129)   
    DRY( 59,130)   DRY( 59,131)   DRY( 59,132)   DRY( 59,133)   DRY( 59,134)   
    DRY( 59,135)   DRY( 59,136)   DRY( 59,137)   DRY( 59,138)   DRY( 59,139)   
    DRY( 59,140)   DRY( 59,141)   DRY( 59,142)   DRY( 59,143)   DRY( 59,144)   
    DRY( 59,145)   DRY( 59,146)   DRY( 59,147)   DRY( 59,148)   DRY( 59,149)   
    DRY( 59,150)   DRY( 59,151)   DRY( 59,152)   DRY( 59,153)   DRY( 59,154)   
    DRY( 59,155)   DRY( 59,156)   DRY( 59,157)   DRY( 59,158)   DRY( 59,159)   
    DRY( 59,160)   DRY( 59,161)   DRY( 59,162)   DRY( 59,163)   DRY( 59,164)   
    DRY( 59,165)   DRY( 59,166)   DRY( 59,167)   DRY( 59,168)   DRY( 59,169)   
    DRY( 59,170)   DRY( 59,171)   DRY( 59,172)   DRY( 59,173)   DRY( 59,174)   
    DRY( 59,175)   DRY( 59,176)   DRY( 59,177)   DRY( 59,178)   DRY( 59,179)   
    DRY( 59,180)   DRY( 59,181)   DRY( 59,182)   DRY( 59,183)   DRY( 59,184)   
    DRY( 59,185)   DRY( 59,186)   DRY( 59,187)   DRY( 59,188)   DRY( 59,189)   
    DRY( 59,190)   DRY( 59,191)   DRY( 59,192)   DRY( 59,193)   DRY( 59,194)   
    DRY( 59,195)   DRY( 59,196)   DRY( 59,197)   DRY( 59,198)   DRY( 59,199)   
    DRY( 59,200)   DRY( 59,201)   DRY( 59,202)   DRY( 59,203)   DRY( 59,204)   
    DRY( 59,205)   DRY( 59,206)   DRY( 59,207)   DRY( 59,208)   DRY( 59,209)   
    DRY( 59,210)   DRY( 59,211)   DRY( 59,212)   DRY( 59,213)   DRY( 59,214)   
    DRY( 59,215)   DRY( 59,216)   DRY( 59,217)   DRY( 59,218)   DRY( 59,219)   
    DRY( 59,220)   DRY( 60,  1)   DRY( 60,  2)   DRY( 60,  3)   DRY( 60,  4)   
    DRY( 60,  5)   DRY( 60,  6)   DRY( 60,  7)   DRY( 60,  8)   DRY( 60,  9)   
    DRY( 60, 10)   DRY( 60, 11)   DRY( 60, 12)   DRY( 60, 13)   DRY( 60, 14)   
    DRY( 60, 15)   DRY( 60, 16)   DRY( 60, 17)   DRY( 60, 18)   DRY( 60, 19)   
    DRY( 60, 20)   DRY( 60, 21)   DRY( 60, 22)   DRY( 60, 23)   DRY( 60, 24)   
    DRY( 60, 25)   DRY( 60, 26)   DRY( 60, 27)   DRY( 60, 28)   DRY( 60, 29)   
    DRY( 60, 30)   DRY( 60, 31)   DRY( 60, 32)   DRY( 60, 33)   DRY( 60, 34)   
    DRY( 60, 35)   DRY( 60, 36)   DRY( 60, 37)   DRY( 60, 38)   DRY( 60, 39)   
    DRY( 60, 40)   DRY( 60, 41)   DRY( 60, 42)   DRY( 60, 43)   DRY( 60, 44)   
    DRY( 60, 45)   DRY( 60, 46)   DRY( 60, 47)   DRY( 60, 48)   DRY( 60, 49)   
    DRY( 60, 50)   DRY( 60, 51)   DRY( 60, 52)   DRY( 60, 53)   DRY( 60, 54)   
    DRY( 60, 55)   DRY( 60, 56)   DRY( 60, 57)   DRY( 60, 58)   DRY( 60, 59)   
    DRY( 60, 60)   DRY( 60, 61)   DRY( 60, 62)   DRY( 60, 63)   DRY( 60, 64)   
    DRY( 60, 65)   DRY( 60, 66)   DRY( 60, 67)   DRY( 60, 68)   DRY( 60, 69)   
    DRY( 60, 70)   DRY( 60, 71)   DRY( 60, 72)   DRY( 60, 73)   DRY( 60, 74)   
    DRY( 60, 75)   DRY( 60, 76)   DRY( 60, 77)   DRY( 60, 78)   DRY( 60, 79)   
    DRY( 60, 80)   DRY( 60, 81)   DRY( 60, 82)   DRY( 60, 83)   DRY( 60, 84)   
    DRY( 60, 85)   DRY( 60, 86)   DRY( 60, 87)   DRY( 60, 88)   DRY( 60, 89)   
    DRY( 60, 90)   DRY( 60, 91)   DRY( 60, 92)   DRY( 60, 93)   DRY( 60, 94)   
    DRY( 60, 95)   DRY( 60, 96)   DRY( 60, 97)   DRY( 60, 98)   DRY( 60, 99)   
    DRY( 60,100)   DRY( 60,101)   DRY( 60,102)   DRY( 60,103)   DRY( 60,104)   
    DRY( 60,105)   DRY( 60,106)   DRY( 60,107)   DRY( 60,108)   DRY( 60,109)   
    DRY( 60,110)   DRY( 60,111)   DRY( 60,112)   DRY( 60,113)   DRY( 60,114)   
    DRY( 60,115)   DRY( 60,116)   DRY( 60,117)   DRY( 60,118)   DRY( 60,119)   
    DRY( 60,120)   DRY( 60,121)   DRY( 60,122)   DRY( 60,123)   DRY( 60,124)   
    DRY( 60,125)   DRY( 60,126)   DRY( 60,127)   DRY( 60,128)   DRY( 60,129)   
    DRY( 60,130)   DRY( 60,131)   DRY( 60,132)   DRY( 60,133)   DRY( 60,134)   
    DRY( 60,135)   DRY( 60,136)   DRY( 60,137)   DRY( 60,138)   DRY( 60,139)   
    DRY( 60,140)   DRY( 60,141)   DRY( 60,142)   DRY( 60,143)   DRY( 60,144)   
    DRY( 60,145)   DRY( 60,146)   DRY( 60,147)   DRY( 60,148)   DRY( 60,149)   
    DRY( 60,150)   DRY( 60,151)   DRY( 60,152)   DRY( 60,153)   DRY( 60,154)   
    DRY( 60,155)   DRY( 60,156)   DRY( 60,157)   DRY( 60,158)   DRY( 60,159)   
    DRY( 60,160)   DRY( 60,161)   DRY( 60,162)   DRY( 60,163)   DRY( 60,164)   
    DRY( 60,165)   DRY( 60,166)   DRY( 60,167)   DRY( 60,168)   DRY( 60,169)   
    DRY( 60,170)   DRY( 60,171)   DRY( 60,172)   DRY( 60,173)   DRY( 60,174)   
    DRY( 60,175)   DRY( 60,176)   DRY( 60,177)   DRY( 60,178)   DRY( 60,179)   
    DRY( 60,180)   DRY( 60,181)   DRY( 60,182)   DRY( 60,183)   DRY( 60,184)   
    DRY( 60,185)   DRY( 60,186)   DRY( 60,187)   DRY( 60,188)   DRY( 60,189)   
    DRY( 60,190)   DRY( 60,191)   DRY( 60,192)   DRY( 60,193)   DRY( 60,194)   
    DRY( 60,195)   DRY( 60,196)   DRY( 60,197)   DRY( 60,198)   DRY( 60,199)   
    DRY( 60,200)   DRY( 60,201)   DRY( 60,202)   DRY( 60,203)   DRY( 60,204)   
    DRY( 60,205)   DRY( 60,206)   DRY( 60,207)   DRY( 60,208)   DRY( 60,209)   
    DRY( 60,210)   DRY( 60,211)   DRY( 60,212)   DRY( 60,213)   DRY( 60,214)   
    DRY( 60,215)   DRY( 60,216)   DRY( 60,217)   DRY( 60,218)   DRY( 60,219)   
    DRY( 60,220)   DRY( 61,  1)   DRY( 61,  2)   DRY( 61,  3)   DRY( 61,  4)   
    DRY( 61,  5)   DRY( 61,  6)   DRY( 61,  7)   DRY( 61,  8)   DRY( 61,  9)   
    DRY( 61, 10)   DRY( 61, 11)   DRY( 61, 12)   DRY( 61, 13)   DRY( 61, 14)   
    DRY( 61, 15)   DRY( 61, 16)   DRY( 61, 17)   DRY( 61, 18)   DRY( 61, 19)   
    DRY( 61, 20)   DRY( 61, 21)   DRY( 61, 22)   DRY( 61, 23)   DRY( 61, 24)   
    DRY( 61, 25)   DRY( 61, 26)   DRY( 61, 27)   DRY( 61, 28)   DRY( 61, 29)   
    DRY( 61, 30)   DRY( 61, 31)   DRY( 61, 32)   DRY( 61, 33)   DRY( 61, 34)   
    DRY( 61, 35)   DRY( 61, 36)   DRY( 61, 37)   DRY( 61, 38)   DRY( 61, 39)   
    DRY( 61, 40)   DRY( 61, 41)   DRY( 61, 42)   DRY( 61, 43)   DRY( 61, 44)   
    DRY( 61, 45)   DRY( 61, 46)   DRY( 61, 47)   DRY( 61, 48)   DRY( 61, 49)   
    DRY( 61, 50)   DRY( 61, 51)   DRY( 61, 52)   DRY( 61, 53)   DRY( 61, 54)   
    DRY( 61, 55)   DRY( 61, 56)   DRY( 61, 57)   DRY( 61, 58)   DRY( 61, 59)   
    DRY( 61, 60)   DRY( 61, 61)   DRY( 61, 62)   DRY( 61, 63)   DRY( 61, 64)   
    DRY( 61, 65)   DRY( 61, 66)   DRY( 61, 67)   DRY( 61, 68)   DRY( 61, 69)   
    DRY( 61, 70)   DRY( 61, 71)   DRY( 61, 72)   DRY( 61, 73)   DRY( 61, 74)   
    DRY( 61, 75)   DRY( 61, 76)   DRY( 61, 77)   DRY( 61, 78)   DRY( 61, 79)   
    DRY( 61, 80)   DRY( 61, 81)   DRY( 61, 82)   DRY( 61, 83)   DRY( 61, 84)   
    DRY( 61, 85)   DRY( 61, 86)   DRY( 61, 87)   DRY( 61, 88)   DRY( 61, 89)   
    DRY( 61, 90)   DRY( 61, 91)   DRY( 61, 92)   DRY( 61, 93)   DRY( 61, 94)   
    DRY( 61, 95)   DRY( 61, 96)   DRY( 61, 97)   DRY( 61, 98)   DRY( 61, 99)   
    DRY( 61,100)   DRY( 61,101)   DRY( 61,102)   DRY( 61,103)   DRY( 61,104)   
    DRY( 61,105)   DRY( 61,106)   DRY( 61,107)   DRY( 61,108)   DRY( 61,109)   
    DRY( 61,110)   DRY( 61,111)   DRY( 61,112)   DRY( 61,113)   DRY( 61,114)   
    DRY( 61,115)   DRY( 61,116)   DRY( 61,117)   DRY( 61,118)   DRY( 61,119)   
    DRY( 61,120)   DRY( 61,121)   DRY( 61,122)   DRY( 61,123)   DRY( 61,124)   
    DRY( 61,125)   DRY( 61,126)   DRY( 61,127)   DRY( 61,128)   DRY( 61,129)   
    DRY( 61,130)   DRY( 61,131)   DRY( 61,132)   DRY( 61,133)   DRY( 61,134)   
    DRY( 61,135)   DRY( 61,136)   DRY( 61,137)   DRY( 61,138)   DRY( 61,139)   
    DRY( 61,140)   DRY( 61,141)   DRY( 61,142)   DRY( 61,143)   DRY( 61,144)   
    DRY( 61,145)   DRY( 61,146)   DRY( 61,147)   DRY( 61,148)   DRY( 61,149)   
    DRY( 61,150)   DRY( 61,151)   DRY( 61,152)   DRY( 61,153)   DRY( 61,154)   
    DRY( 61,155)   DRY( 61,156)   DRY( 61,157)   DRY( 61,158)   DRY( 61,159)   
    DRY( 61,160)   DRY( 61,161)   DRY( 61,162)   DRY( 61,163)   DRY( 61,164)   
    DRY( 61,165)   DRY( 61,166)   DRY( 61,167)   DRY( 61,168)   DRY( 61,169)   
    DRY( 61,170)   DRY( 61,171)   DRY( 61,172)   DRY( 61,173)   DRY( 61,174)   
    DRY( 61,175)   DRY( 61,176)   DRY( 61,177)   DRY( 61,178)   DRY( 61,179)   
    DRY( 61,180)   DRY( 61,181)   DRY( 61,182)   DRY( 61,183)   DRY( 61,184)   
    DRY( 61,185)   DRY( 61,186)   DRY( 61,187)   DRY( 61,188)   DRY( 61,189)   
    DRY( 61,190)   DRY( 61,191)   DRY( 61,192)   DRY( 61,193)   DRY( 61,194)   
    DRY( 61,195)   DRY( 61,196)   DRY( 61,197)   DRY( 61,198)   DRY( 61,199)   
    DRY( 61,200)   DRY( 61,201)   DRY( 61,202)   DRY( 61,203)   DRY( 61,204)   
    DRY( 61,205)   DRY( 61,206)   DRY( 61,207)   DRY( 61,208)   DRY( 61,209)   
    DRY( 61,210)   DRY( 61,211)   DRY( 61,212)   DRY( 61,213)   DRY( 61,214)   
    DRY( 61,215)   DRY( 61,216)   DRY( 61,217)   DRY( 61,218)   DRY( 61,219)   
    DRY( 61,220)   DRY( 62,  1)   DRY( 62,  2)   DRY( 62,  3)   DRY( 62,  4)   
    DRY( 62,  5)   DRY( 62,  6)   DRY( 62,  7)   DRY( 62,  8)   DRY( 62,  9)   
    DRY( 62, 10)   DRY( 62, 11)   DRY( 62, 12)   DRY( 62, 13)   DRY( 62, 14)   
    DRY( 62, 15)   DRY( 62, 16)   DRY( 62, 17)   DRY( 62, 18)   DRY( 62, 19)   
    DRY( 62, 20)   DRY( 62, 21)   DRY( 62, 22)   DRY( 62, 23)   DRY( 62, 24)   
    DRY( 62, 25)   DRY( 62, 26)   DRY( 62, 27)   DRY( 62, 28)   DRY( 62, 29)   
    DRY( 62, 30)   DRY( 62, 31)   DRY( 62, 32)   DRY( 62, 33)   DRY( 62, 34)   
    DRY( 62, 35)   DRY( 62, 36)   DRY( 62, 37)   DRY( 62, 38)   DRY( 62, 39)   
    DRY( 62, 40)   DRY( 62, 41)   DRY( 62, 42)   DRY( 62, 43)   DRY( 62, 44)   
    DRY( 62, 45)   DRY( 62, 46)   DRY( 62, 47)   DRY( 62, 48)   DRY( 62, 49)   
    DRY( 62, 50)   DRY( 62, 51)   DRY( 62, 52)   DRY( 62, 53)   DRY( 62, 54)   
    DRY( 62, 55)   DRY( 62, 56)   DRY( 62, 57)   DRY( 62, 58)   DRY( 62, 59)   
    DRY( 62, 60)   DRY( 62, 61)   DRY( 62, 62)   DRY( 62, 63)   DRY( 62, 64)   
    DRY( 62, 65)   DRY( 62, 66)   DRY( 62, 67)   DRY( 62, 68)   DRY( 62, 69)   
    DRY( 62, 70)   DRY( 62, 71)   DRY( 62, 72)   DRY( 62, 73)   DRY( 62, 74)   
    DRY( 62, 75)   DRY( 62, 76)   DRY( 62, 77)   DRY( 62, 78)   DRY( 62, 79)   
    DRY( 62, 80)   DRY( 62, 81)   DRY( 62, 82)   DRY( 62, 83)   DRY( 62, 84)   
    DRY( 62, 85)   DRY( 62, 86)   DRY( 62, 87)   DRY( 62, 88)   DRY( 62, 89)   
    DRY( 62, 90)   DRY( 62, 91)   DRY( 62, 92)   DRY( 62, 93)   DRY( 62, 94)   
    DRY( 62, 95)   DRY( 62, 96)   DRY( 62, 97)   DRY( 62, 98)   DRY( 62, 99)   
    DRY( 62,100)   DRY( 62,101)   DRY( 62,102)   DRY( 62,103)   DRY( 62,104)   
    DRY( 62,105)   DRY( 62,106)   DRY( 62,107)   DRY( 62,108)   DRY( 62,109)   
    DRY( 62,110)   DRY( 62,111)   DRY( 62,112)   DRY( 62,113)   DRY( 62,114)   
    DRY( 62,115)   DRY( 62,116)   DRY( 62,117)   DRY( 62,118)   DRY( 62,119)   
    DRY( 62,120)   DRY( 62,121)   DRY( 62,122)   DRY( 62,123)   DRY( 62,124)   
    DRY( 62,125)   DRY( 62,126)   DRY( 62,127)   DRY( 62,128)   DRY( 62,129)   
    DRY( 62,130)   DRY( 62,131)   DRY( 62,132)   DRY( 62,133)   DRY( 62,134)   
    DRY( 62,135)   DRY( 62,136)   DRY( 62,137)   DRY( 62,138)   DRY( 62,139)   
    DRY( 62,140)   DRY( 62,141)   DRY( 62,142)   DRY( 62,143)   DRY( 62,144)   
    DRY( 62,145)   DRY( 62,146)   DRY( 62,147)   DRY( 62,148)   DRY( 62,149)   
    DRY( 62,150)   DRY( 62,151)   DRY( 62,152)   DRY( 62,153)   DRY( 62,154)   
    DRY( 62,155)   DRY( 62,156)   DRY( 62,157)   DRY( 62,158)   DRY( 62,159)   
    DRY( 62,160)   DRY( 62,161)   DRY( 62,162)   DRY( 62,163)   DRY( 62,164)   
    DRY( 62,165)   DRY( 62,166)   DRY( 62,167)   DRY( 62,168)   DRY( 62,169)   
    DRY( 62,170)   DRY( 62,171)   DRY( 62,172)   DRY( 62,173)   DRY( 62,174)   
    DRY( 62,175)   DRY( 62,176)   DRY( 62,177)   DRY( 62,178)   DRY( 62,179)   
    DRY( 62,180)   DRY( 62,181)   DRY( 62,182)   DRY( 62,183)   DRY( 62,184)   
    DRY( 62,185)   DRY( 62,186)   DRY( 62,187)   DRY( 62,188)   DRY( 62,189)   
    DRY( 62,190)   DRY( 62,191)   DRY( 62,192)   DRY( 62,193)   DRY( 62,194)   
    DRY( 62,195)   DRY( 62,196)   DRY( 62,197)   DRY( 62,198)   DRY( 62,199)   
    DRY( 62,200)   DRY( 62,201)   DRY( 62,202)   DRY( 62,203)   DRY( 62,204)   
    DRY( 62,205)   DRY( 62,206)   DRY( 62,207)   DRY( 62,208)   DRY( 62,209)   
    DRY( 62,210)   DRY( 62,211)   DRY( 62,212)   DRY( 62,213)   DRY( 62,214)   
    DRY( 62,215)   DRY( 62,216)   DRY( 62,217)   DRY( 62,218)   DRY( 62,219)   
    DRY( 62,220)   DRY( 63,  3)   DRY( 63,  4)   DRY( 63,  5)   DRY( 63,  6)   
    DRY( 63,  7)   DRY( 63,  8)   DRY( 63,  9)   DRY( 63, 10)   DRY( 63, 11)   
    DRY( 63, 12)   DRY( 63, 13)   DRY( 63, 14)   DRY( 63, 15)   DRY( 63, 16)   
    DRY( 63, 17)   DRY( 63, 18)   DRY( 63, 19)   DRY( 63, 20)   DRY( 63, 21)   
    DRY( 63, 22)   DRY( 63, 23)   DRY( 63, 24)   DRY( 63, 25)   DRY( 63, 26)   
    DRY( 63, 27)   DRY( 63, 28)   DRY( 63, 29)   DRY( 63, 30)   DRY( 63, 31)   
    DRY( 63, 32)   DRY( 63, 33)   DRY( 63, 34)   DRY( 63, 35)   DRY( 63, 36)   
    DRY( 63, 37)   DRY( 63, 38)   DRY( 63, 39)   DRY( 63, 40)   DRY( 63, 41)   
    DRY( 63, 42)   DRY( 63, 43)   DRY( 63, 44)   DRY( 63, 45)   DRY( 63, 46)   
    DRY( 63, 47)   DRY( 63, 48)   DRY( 63, 49)   DRY( 63, 50)   DRY( 63, 51)   
    DRY( 63, 52)   DRY( 63, 53)   DRY( 63, 54)   DRY( 63, 55)   DRY( 63, 56)   
    DRY( 63, 57)   DRY( 63, 58)   DRY( 63, 59)   DRY( 63, 60)   DRY( 63, 61)   
    DRY( 63, 62)   DRY( 63, 63)   DRY( 63, 64)   DRY( 63, 65)   DRY( 63, 66)   
    DRY( 63, 67)   DRY( 63, 68)   DRY( 63, 69)   DRY( 63, 70)   DRY( 63, 71)   
    DRY( 63, 72)   DRY( 63, 73)   DRY( 63, 74)   DRY( 63, 75)   DRY( 63, 76)   
    DRY( 63, 77)   DRY( 63, 78)   DRY( 63, 79)   DRY( 63, 80)   DRY( 63, 81)   
    DRY( 63, 82)   DRY( 63, 83)   DRY( 63, 84)   DRY( 63, 85)   DRY( 63, 86)   
    DRY( 63, 87)   DRY( 63, 88)   DRY( 63, 89)   DRY( 63, 90)   DRY( 63, 91)   
    DRY( 63, 92)   DRY( 63, 93)   DRY( 63, 94)   DRY( 63, 95)   DRY( 63, 96)   
    DRY( 63, 97)   DRY( 63, 98)   DRY( 63, 99)   DRY( 63,100)   DRY( 63,101)   
    DRY( 63,102)   DRY( 63,103)   DRY( 63,104)   DRY( 63,105)   DRY( 63,106)   
    DRY( 63,107)   DRY( 63,108)   DRY( 63,109)   DRY( 63,110)   DRY( 63,111)   
    DRY( 63,112)   DRY( 63,113)   DRY( 63,114)   DRY( 63,115)   DRY( 63,116)   
    DRY( 63,117)   DRY( 63,118)   DRY( 63,119)   DRY( 63,120)   DRY( 63,121)   
    DRY( 63,122)   DRY( 63,123)   DRY( 63,124)   DRY( 63,125)   DRY( 63,126)   
    DRY( 63,127)   DRY( 63,128)   DRY( 63,129)   DRY( 63,130)   DRY( 63,131)   
    DRY( 63,132)   DRY( 63,133)   DRY( 63,134)   DRY( 63,135)   DRY( 63,136)   
    DRY( 63,137)   DRY( 63,138)   DRY( 63,139)   DRY( 63,140)   DRY( 63,141)   
    DRY( 63,142)   DRY( 63,143)   DRY( 63,144)   DRY( 63,145)   DRY( 63,146)   
    DRY( 63,147)   DRY( 63,148)   DRY( 63,149)   DRY( 63,150)   DRY( 63,151)   
    DRY( 63,152)   DRY( 63,153)   DRY( 63,154)   DRY( 63,155)   DRY( 63,156)   
    DRY( 63,157)   DRY( 63,158)   DRY( 63,159)   DRY( 63,160)   DRY( 63,161)   
    DRY( 63,162)   DRY( 63,163)   DRY( 63,164)   DRY( 63,165)   DRY( 63,166)   
    DRY( 63,167)   DRY( 63,168)   DRY( 63,169)   DRY( 63,170)   DRY( 63,171)   
    DRY( 63,172)   DRY( 63,173)   DRY( 63,174)   DRY( 63,175)   DRY( 63,176)   
    DRY( 63,177)   DRY( 63,178)   DRY( 63,179)   DRY( 63,180)   DRY( 63,181)   
    DRY( 63,182)   DRY( 63,183)   DRY( 63,184)   DRY( 63,185)   DRY( 63,186)   
    DRY( 63,187)   DRY( 63,188)   DRY( 63,189)   DRY( 63,190)   DRY( 63,191)   
    DRY( 63,192)   DRY( 63,193)   DRY( 63,194)   DRY( 63,195)   DRY( 63,196)   
    DRY( 63,197)   DRY( 63,198)   DRY( 63,199)   DRY( 63,200)   DRY( 63,201)   
    DRY( 63,202)   DRY( 63,203)   DRY( 63,204)   DRY( 63,205)   DRY( 63,206)   
    DRY( 63,207)   DRY( 63,208)   DRY( 63,209)   DRY( 63,210)   DRY( 63,211)   
    DRY( 63,212)   DRY( 63,213)   DRY( 63,214)   DRY( 63,215)   DRY( 63,216)   
    DRY( 63,217)   DRY( 63,218)   DRY( 63,219)   DRY( 63,220)   DRY( 64,  4)   
    DRY( 64,  5)   DRY( 64,  6)   DRY( 64,  7)   DRY( 64,  8)   DRY( 64,  9)   
    DRY( 64, 10)   DRY( 64, 11)   DRY( 64, 12)   DRY( 64, 13)   DRY( 64, 14)   
    DRY( 64, 15)   DRY( 64, 16)   DRY( 64, 17)   DRY( 64, 18)   DRY( 64, 19)   
    DRY( 64, 20)   DRY( 64, 21)   DRY( 64, 22)   DRY( 64, 23)   DRY( 64, 24)   
    DRY( 64, 25)   DRY( 64, 26)   DRY( 64, 27)   DRY( 64, 28)   DRY( 64, 29)   
    DRY( 64, 30)   DRY( 64, 31)   DRY( 64, 32)   DRY( 64, 33)   DRY( 64, 34)   
    DRY( 64, 35)   DRY( 64, 36)   DRY( 64, 37)   DRY( 64, 38)   DRY( 64, 39)   
    DRY( 64, 40)   DRY( 64, 41)   DRY( 64, 42)   DRY( 64, 43)   DRY( 64, 44)   
    DRY( 64, 45)   DRY( 64, 46)   DRY( 64, 47)   DRY( 64, 48)   DRY( 64, 49)   
    DRY( 64, 50)   DRY( 64, 51)   DRY( 64, 52)   DRY( 64, 53)   DRY( 64, 54)   
    DRY( 64, 55)   DRY( 64, 56)   DRY( 64, 57)   DRY( 64, 58)   DRY( 64, 59)   
    DRY( 64, 60)   DRY( 64, 61)   DRY( 64, 62)   DRY( 64, 63)   DRY( 64, 64)   
    DRY( 64, 65)   DRY( 64, 66)   DRY( 64, 67)   DRY( 64, 68)   DRY( 64, 69)   
    DRY( 64, 70)   DRY( 64, 71)   DRY( 64, 72)   DRY( 64, 73)   DRY( 64, 74)   
    DRY( 64, 75)   DRY( 64, 76)   DRY( 64, 77)   DRY( 64, 78)   DRY( 64, 79)   
    DRY( 64, 80)   DRY( 64, 81)   DRY( 64, 82)   DRY( 64, 83)   DRY( 64, 84)   
    DRY( 64, 85)   DRY( 64, 86)   DRY( 64, 87)   DRY( 64, 88)   DRY( 64, 89)   
    DRY( 64, 90)   DRY( 64, 91)   DRY( 64, 92)   DRY( 64, 93)   DRY( 64, 94)   
    DRY( 64, 95)   DRY( 64, 96)   DRY( 64, 97)   DRY( 64, 98)   DRY( 64, 99)   
    DRY( 64,100)   DRY( 64,101)   DRY( 64,102)   DRY( 64,103)   DRY( 64,104)   
    DRY( 64,105)   DRY( 64,106)   DRY( 64,107)   DRY( 64,108)   DRY( 64,109)   
    DRY( 64,110)   DRY( 64,111)   DRY( 64,112)   DRY( 64,113)   DRY( 64,114)   
    DRY( 64,115)   DRY( 64,116)   DRY( 64,117)   DRY( 64,118)   DRY( 64,119)   
    DRY( 64,120)   DRY( 64,121)   DRY( 64,122)   DRY( 64,123)   DRY( 64,124)   
    DRY( 64,125)   DRY( 64,126)   DRY( 64,127)   DRY( 64,128)   DRY( 64,129)   
    DRY( 64,130)   DRY( 64,131)   DRY( 64,132)   DRY( 64,133)   DRY( 64,134)   
    DRY( 64,135)   DRY( 64,136)   DRY( 64,137)   DRY( 64,138)   DRY( 64,139)   
    DRY( 64,140)   DRY( 64,141)   DRY( 64,142)   DRY( 64,143)   DRY( 64,144)   
    DRY( 64,145)   DRY( 64,146)   DRY( 64,147)   DRY( 64,148)   DRY( 64,149)   
    DRY( 64,150)   DRY( 64,151)   DRY( 64,152)   DRY( 64,153)   DRY( 64,154)   
    DRY( 64,155)   DRY( 64,156)   DRY( 64,157)   DRY( 64,158)   DRY( 64,159)   
    DRY( 64,160)   DRY( 64,161)   DRY( 64,162)   DRY( 64,163)   DRY( 64,164)   
    DRY( 64,165)   DRY( 64,166)   DRY( 64,167)   DRY( 64,168)   DRY( 64,169)   
    DRY( 64,170)   DRY( 64,171)   DRY( 64,172)   DRY( 64,173)   DRY( 64,174)   
    DRY( 64,175)   DRY( 64,176)   DRY( 64,177)   DRY( 64,178)   DRY( 64,179)   
    DRY( 64,180)   DRY( 64,181)   DRY( 64,182)   DRY( 64,183)   DRY( 64,184)   
    DRY( 64,185)   DRY( 64,186)   DRY( 64,187)   DRY( 64,188)   DRY( 64,189)   
    DRY( 64,190)   DRY( 64,191)   DRY( 64,192)   DRY( 64,193)   DRY( 64,194)   
    DRY( 64,195)   DRY( 64,196)   DRY( 64,197)   DRY( 64,198)   DRY( 64,199)   
    DRY( 64,200)   DRY( 64,201)   DRY( 64,202)   DRY( 64,203)   DRY( 64,204)   
    DRY( 64,205)   DRY( 64,206)   DRY( 64,207)   DRY( 64,208)   DRY( 64,209)   
    DRY( 64,210)   DRY( 64,211)   DRY( 64,212)   DRY( 64,213)   DRY( 64,214)   
    DRY( 64,215)   DRY( 64,216)   DRY( 64,217)   DRY( 64,218)   DRY( 64,219)   
    DRY( 64,220)   

 CELL CONVERSIONS FOR ITER.=  3  LAYER= 21  STEP=  1  PERIOD=   1   (ROW,COL)
    DRY( 55,  1)   DRY( 55,  2)   DRY( 55,  3)   DRY( 55,  4)   DRY( 55,  5)   
    DRY( 55,  6)   DRY( 55,  7)   DRY( 55,  8)   DRY( 55,  9)   DRY( 55, 10)   
    DRY( 55, 11)   DRY( 55, 12)   DRY( 55, 13)   DRY( 55, 14)   DRY( 55, 15)   
    DRY( 55, 16)   DRY( 55, 17)   DRY( 55, 18)   DRY( 55, 19)   DRY( 55, 20)   
    DRY( 55, 21)   DRY( 55, 22)   DRY( 55, 23)   DRY( 55, 24)   DRY( 55, 25)   
    DRY( 55, 26)   DRY( 55, 27)   DRY( 55, 28)   DRY( 55, 29)   DRY( 55, 30)   
    DRY( 55, 31)   DRY( 55, 32)   DRY( 55, 33)   DRY( 55, 34)   DRY( 55, 35)   
    DRY( 55, 36)   DRY( 55, 37)   DRY( 55, 38)   DRY( 56,  1)   DRY( 56,  2)   
    DRY( 56,  3)   DRY( 56,  4)   DRY( 56,  5)   DRY( 56,  6)   DRY( 56,  7)   
    DRY( 56,  8)   DRY( 56,  9)   DRY( 56, 10)   DRY( 56, 11)   DRY( 56, 12)   
    DRY( 56, 13)   DRY( 56, 14)   DRY( 56, 15)   DRY( 56, 16)   DRY( 56, 17)   
    DRY( 56, 18)   DRY( 56, 19)   DRY( 56, 20)   DRY( 56, 21)   DRY( 56, 22)   
    DRY( 56, 23)   DRY( 56, 24)   DRY( 56, 25)   DRY( 56, 26)   DRY( 56, 27)   
    DRY( 56, 28)   DRY( 56, 29)   DRY( 56, 30)   DRY( 56, 31)   DRY( 56, 32)   
    DRY( 56, 33)   DRY( 56, 34)   DRY( 56, 35)   DRY( 56, 36)   DRY( 56, 37)   
    DRY( 56, 38)   DRY( 56, 39)   DRY( 56, 40)   DRY( 56, 41)   DRY( 56, 42)   
    DRY( 56, 43)   DRY( 56, 44)   DRY( 56, 45)   DRY( 56, 46)   DRY( 56, 47)   
    DRY( 56, 48)   DRY( 56, 49)   DRY( 56, 50)   DRY( 56, 51)   DRY( 56, 52)   
    DRY( 56, 53)   DRY( 56, 54)   DRY( 56, 55)   DRY( 56, 56)   DRY( 56, 57)   
    DRY( 56, 58)   DRY( 56, 59)   DRY( 56, 60)   DRY( 56, 61)   DRY( 56, 62)   
    DRY( 56, 63)   DRY( 56, 64)   DRY( 56, 65)   DRY( 56, 66)   DRY( 56, 67)   
    DRY( 56, 68)   DRY( 56, 69)   DRY( 56, 70)   DRY( 56, 71)   DRY( 56, 72)   
    DRY( 56, 73)   DRY( 56, 74)   DRY( 56, 75)   DRY( 56, 76)   DRY( 56, 77)   
    DRY( 56, 78)   DRY( 56, 79)   DRY( 56, 80)   DRY( 56, 81)   DRY( 56, 82)   
    DRY( 56, 83)   DRY( 56, 84)   DRY( 56, 85)   DRY( 56, 86)   DRY( 56, 87)   
    DRY( 56, 88)   DRY( 56, 89)   DRY( 56, 90)   DRY( 56, 91)   DRY( 56, 92)   
    DRY( 56, 93)   DRY( 56, 94)   DRY( 56, 95)   DRY( 56, 96)   DRY( 56, 97)   
    DRY( 56, 98)   DRY( 56, 99)   DRY( 56,100)   DRY( 57,  1)   DRY( 57,  2)   
    DRY( 57,  3)   DRY( 57,  4)   DRY( 57,  5)   DRY( 57,  6)   DRY( 57,  7)   
    DRY( 57,  8)   DRY( 57,  9)   DRY( 57, 10)   DRY( 57, 11)   DRY( 57, 12)   
    DRY( 57, 13)   DRY( 57, 14)   DRY( 57, 15)   DRY( 57, 16)   DRY( 57, 17)   
    DRY( 57, 18)   DRY( 57, 19)   DRY( 57, 20)   DRY( 57, 21)   DRY( 57, 22)   
    DRY( 57, 23)   DRY( 57, 24)   DRY( 57, 25)   DRY( 57, 26)   DRY( 57, 27)   
    DRY( 57, 28)   DRY( 57, 29)   DRY( 57, 30)   DRY( 57, 31)   DRY( 57, 32)   
    DRY( 57, 33)   DRY( 57, 34)   DRY( 57, 35)   DRY( 57, 36)   DRY( 57, 37)   
    DRY( 57, 38)   DRY( 57, 39)   DRY( 57, 40)   DRY( 57, 41)   DRY( 57, 42)   
    DRY( 57, 43)   DRY( 57, 44)   DRY( 57, 45)   DRY( 57, 46)   DRY( 57, 47)   
    DRY( 57, 48)   DRY( 57, 49)   DRY( 57, 50)   DRY( 57, 51)   DRY( 57, 52)   
    DRY( 57, 53)   DRY( 57, 54)   DRY( 57, 55)   DRY( 57, 56)   DRY( 57, 57)   
    DRY( 57, 58)   DRY( 57, 59)   DRY( 57, 60)   DRY( 57, 61)   DRY( 57, 62)   
    DRY( 57, 63)   DRY( 57, 64)   DRY( 57, 65)   DRY( 57, 66)   DRY( 57, 67)   
    DRY( 57, 68)   DRY( 57, 69)   DRY( 57, 70)   DRY( 57, 71)   DRY( 57, 72)   
    DRY( 57, 73)   DRY( 57, 74)   DRY( 57, 75)   DRY( 57, 76)   DRY( 57, 77)   
    DRY( 57, 78)   DRY( 57, 79)   DRY( 57, 80)   DRY( 57, 81)   DRY( 57, 82)   
    DRY( 57, 83)   DRY( 57, 84)   DRY( 57, 85)   DRY( 57, 86)   DRY( 57, 87)   
    DRY( 57, 88)   DRY( 57, 89)   DRY( 57, 90)   DRY( 57, 91)   DRY( 57, 92)   
    DRY( 57, 93)   DRY( 57, 94)   DRY( 57, 95)   DRY( 57, 96)   DRY( 57, 97)   
    DRY( 57, 98)   DRY( 57, 99)   DRY( 57,100)   DRY( 57,101)   DRY( 57,102)   
    DRY( 57,103)   DRY( 57,104)   DRY( 57,105)   DRY( 57,106)   DRY( 57,107)   
    DRY( 57,108)   DRY( 57,109)   DRY( 57,110)   DRY( 57,111)   DRY( 57,112)   
    DRY( 57,113)   DRY( 57,114)   DRY( 57,115)   DRY( 57,116)   DRY( 57,117)   
    DRY( 57,118)   DRY( 57,119)   DRY( 57,120)   DRY( 57,121)   DRY( 57,122)   
    DRY( 57,123)   DRY( 57,124)   DRY( 57,125)   DRY( 57,126)   DRY( 57,127)   
    DRY( 57,128)   DRY( 57,129)   DRY( 57,130)   DRY( 57,131)   DRY( 57,132)   
    DRY( 57,133)   DRY( 57,134)   DRY( 57,135)   DRY( 57,136)   DRY( 57,137)   
    DRY( 57,138)   DRY( 57,139)   DRY( 57,140)   DRY( 57,141)   DRY( 57,142)   
    DRY( 57,143)   DRY( 57,144)   DRY( 57,145)   DRY( 57,146)   DRY( 57,147)   
    DRY( 57,148)   DRY( 57,149)   DRY( 57,150)   DRY( 57,151)   DRY( 57,152)   
    DRY( 57,153)   DRY( 57,154)   DRY( 57,155)   DRY( 57,156)   DRY( 57,157)   
    DRY( 57,158)   DRY( 57,159)   DRY( 57,160)   DRY( 57,161)   DRY( 58,  1)   
    DRY( 58,  2)   DRY( 58,  3)   DRY( 58,  4)   DRY( 58,  5)   DRY( 58,  6)   
    DRY( 58,  7)   DRY( 58,  8)   DRY( 58,  9)   DRY( 58, 10)   DRY( 58, 11)   
    DRY( 58, 12)   DRY( 58, 13)   DRY( 58, 14)   DRY( 58, 15)   DRY( 58, 16)   
    DRY( 58, 17)   DRY( 58, 18)   DRY( 58, 19)   DRY( 58, 20)   DRY( 58, 21)   
    DRY( 58, 22)   DRY( 58, 23)   DRY( 58, 24)   DRY( 58, 25)   DRY( 58, 26)   
    DRY( 58, 27)   DRY( 58, 28)   DRY( 58, 29)   DRY( 58, 30)   DRY( 58, 31)   
    DRY( 58, 32)   DRY( 58, 33)   DRY( 58, 34)   DRY( 58, 35)   DRY( 58, 36)   
    DRY( 58, 37)   DRY( 58, 38)   DRY( 58, 39)   DRY( 58, 40)   DRY( 58, 41)   
    DRY( 58, 42)   DRY( 58, 43)   DRY( 58, 44)   DRY( 58, 45)   DRY( 58, 46)   
    DRY( 58, 47)   DRY( 58, 48)   DRY( 58, 49)   DRY( 58, 50)   DRY( 58, 51)   
    DRY( 58, 52)   DRY( 58, 53)   DRY( 58, 54)   DRY( 58, 55)   DRY( 58, 56)   
    DRY( 58, 57)   DRY( 58, 58)   DRY( 58, 59)   DRY( 58, 60)   DRY( 58, 61)   
    DRY( 58, 62)   DRY( 58, 63)   DRY( 58, 64)   DRY( 58, 65)   DRY( 58, 66)   
    DRY( 58, 67)   DRY( 58, 68)   DRY( 58, 69)   DRY( 58, 70)   DRY( 58, 71)   
    DRY( 58, 72)   DRY( 58, 73)   DRY( 58, 74)   DRY( 58, 75)   DRY( 58, 76)   
    DRY( 58, 77)   DRY( 58, 78)   DRY( 58, 79)   DRY( 58, 80)   DRY( 58, 81)   
    DRY( 58, 82)   DRY( 58, 83)   DRY( 58, 84)   DRY( 58, 85)   DRY( 58, 86)   
    DRY( 58, 87)   DRY( 58, 88)   DRY( 58, 89)   DRY( 58, 90)   DRY( 58, 91)   
    DRY( 58, 92)   DRY( 58, 93)   DRY( 58, 94)   DRY( 58, 95)   DRY( 58, 96)   
    DRY( 58, 97)   DRY( 58, 98)   DRY( 58, 99)   DRY( 58,100)   DRY( 58,101)   
    DRY( 58,102)   DRY( 58,103)   DRY( 58,104)   DRY( 58,105)   DRY( 58,106)   
    DRY( 58,107)   DRY( 58,108)   DRY( 58,109)   DRY( 58,110)   DRY( 58,111)   
    DRY( 58,112)   DRY( 58,113)   DRY( 58,114)   DRY( 58,115)   DRY( 58,116)   
    DRY( 58,117)   DRY( 58,118)   DRY( 58,119)   DRY( 58,120)   DRY( 58,121)   
    DRY( 58,122)   DRY( 58,123)   DRY( 58,124)   DRY( 58,125)   DRY( 58,126)   
    DRY( 58,127)   DRY( 58,128)   DRY( 58,129)   DRY( 58,130)   DRY( 58,131)   
    DRY( 58,132)   DRY( 58,133)   DRY( 58,134)   DRY( 58,135)   DRY( 58,136)   
    DRY( 58,137)   DRY( 58,138)   DRY( 58,139)   DRY( 58,140)   DRY( 58,141)   
    DRY( 58,142)   DRY( 58,143)   DRY( 58,144)   DRY( 58,145)   DRY( 58,146)   
    DRY( 58,147)   DRY( 58,148)   DRY( 58,149)   DRY( 58,150)   DRY( 58,151)   
    DRY( 58,152)   DRY( 58,153)   DRY( 58,154)   DRY( 58,155)   DRY( 58,156)   
    DRY( 58,157)   DRY( 58,158)   DRY( 58,159)   DRY( 58,160)   DRY( 58,161)   
    DRY( 58,162)   DRY( 58,163)   DRY( 58,164)   DRY( 58,165)   DRY( 58,166)   
    DRY( 58,167)   DRY( 58,168)   DRY( 58,169)   DRY( 58,170)   DRY( 58,171)   
    DRY( 58,172)   DRY( 58,173)   DRY( 58,174)   DRY( 58,175)   DRY( 58,176)   
    DRY( 58,177)   DRY( 58,178)   DRY( 58,179)   DRY( 58,180)   DRY( 58,181)   
    DRY( 58,182)   DRY( 58,183)   DRY( 58,184)   DRY( 58,185)   DRY( 58,186)   
    DRY( 58,187)   DRY( 58,188)   DRY( 58,189)   DRY( 58,190)   DRY( 58,191)   
    DRY( 58,192)   DRY( 58,193)   DRY( 58,194)   DRY( 58,195)   DRY( 58,196)   
    DRY( 58,197)   DRY( 58,198)   DRY( 58,199)   DRY( 58,200)   DRY( 58,201)   
    DRY( 58,202)   DRY( 58,203)   DRY( 58,204)   DRY( 58,205)   DRY( 58,206)   
    DRY( 58,207)   DRY( 58,208)   DRY( 58,209)   DRY( 58,210)   DRY( 58,211)   
    DRY( 58,212)   DRY( 58,213)   DRY( 58,214)   DRY( 58,215)   DRY( 58,216)   
    DRY( 59,  1)   DRY( 59,  2)   DRY( 59,  3)   DRY( 59,  4)   DRY( 59,  5)   
    DRY( 59,  6)   DRY( 59,  7)   DRY( 59,  8)   DRY( 59,  9)   DRY( 59, 10)   
    DRY( 59, 11)   DRY( 59, 12)   DRY( 59, 13)   DRY( 59, 14)   DRY( 59, 15)   
    DRY( 59, 16)   DRY( 59, 17)   DRY( 59, 18)   DRY( 59, 19)   DRY( 59, 20)   
    DRY( 59, 21)   DRY( 59, 22)   DRY( 59, 23)   DRY( 59, 24)   DRY( 59, 25)   
    DRY( 59, 26)   DRY( 59, 27)   DRY( 59, 28)   DRY( 59, 29)   DRY( 59, 30)   
    DRY( 59, 31)   DRY( 59, 32)   DRY( 59, 33)   DRY( 59, 34)   DRY( 59, 35)   
    DRY( 59, 36)   DRY( 59, 37)   DRY( 59, 38)   DRY( 59, 39)   DRY( 59, 40)   
    DRY( 59, 41)   DRY( 59, 42)   DRY( 59, 43)   DRY( 59, 44)   DRY( 59, 45)   
    DRY( 59, 46)   DRY( 59, 47)   DRY( 59, 48)   DRY( 59, 49)   DRY( 59, 50)   
    DRY( 59, 51)   DRY( 59, 52)   DRY( 59, 53)   DRY( 59, 54)   DRY( 59, 55)   
    DRY( 59, 56)   DRY( 59, 57)   DRY( 59, 58)   DRY( 59, 59)   DRY( 59, 60)   
    DRY( 59, 61)   DRY( 59, 62)   DRY( 59, 63)   DRY( 59, 64)   DRY( 59, 65)   
    DRY( 59, 66)   DRY( 59, 67)   DRY( 59, 68)   DRY( 59, 69)   DRY( 59, 70)   
    DRY( 59, 71)   DRY( 59, 72)   DRY( 59, 73)   DRY( 59, 74)   DRY( 59, 75)   
    DRY( 59, 76)   DRY( 59, 77)   DRY( 59, 78)   DRY( 59, 79)   DRY( 59, 80)   
    DRY( 59, 81)   DRY( 59, 82)   DRY( 59, 83)   DRY( 59, 84)   DRY( 59, 85)   
    DRY( 59, 86)   DRY( 59, 87)   DRY( 59, 88)   DRY( 59, 89)   DRY( 59, 90)   
    DRY( 59, 91)   DRY( 59, 92)   DRY( 59, 93)   DRY( 59, 94)   DRY( 59, 95)   
    DRY( 59, 96)   DRY( 59, 97)   DRY( 59, 98)   DRY( 59, 99)   DRY( 59,100)   
    DRY( 59,101)   DRY( 59,102)   DRY( 59,103)   DRY( 59,104)   DRY( 59,105)   
    DRY( 59,106)   DRY( 59,107)   DRY( 59,108)   DRY( 59,109)   DRY( 59,110)   
    DRY( 59,111)   DRY( 59,112)   DRY( 59,113)   DRY( 59,114)   DRY( 59,115)   
    DRY( 59,116)   DRY( 59,117)   DRY( 59,118)   DRY( 59,119)   DRY( 59,120)   
    DRY( 59,121)   DRY( 59,122)   DRY( 59,123)   DRY( 59,124)   DRY( 59,125)   
    DRY( 59,126)   DRY( 59,127)   DRY( 59,128)   DRY( 59,129)   DRY( 59,130)   
    DRY( 59,131)   DRY( 59,132)   DRY( 59,133)   DRY( 59,134)   DRY( 59,135)   
    DRY( 59,136)   DRY( 59,137)   DRY( 59,138)   DRY( 59,139)   DRY( 59,140)   
    DRY( 59,141)   DRY( 59,142)   DRY( 59,143)   DRY( 59,144)   DRY( 59,145)   
    DRY( 59,146)   DRY( 59,147)   DRY( 59,148)   DRY( 59,149)   DRY( 59,150)   
    DRY( 59,151)   DRY( 59,152)   DRY( 59,153)   DRY( 59,154)   DRY( 59,155)   
    DRY( 59,156)   DRY( 59,157)   DRY( 59,158)   DRY( 59,159)   DRY( 59,160)   
    DRY( 59,161)   DRY( 59,162)   DRY( 59,163)   DRY( 59,164)   DRY( 59,165)   
    DRY( 59,166)   DRY( 59,167)   DRY( 59,168)   DRY( 59,169)   DRY( 59,170)   
    DRY( 59,171)   DRY( 59,172)   DRY( 59,173)   DRY( 59,174)   DRY( 59,175)   
    DRY( 59,176)   DRY( 59,177)   DRY( 59,178)   DRY( 59,179)   DRY( 59,180)   
    DRY( 59,181)   DRY( 59,182)   DRY( 59,183)   DRY( 59,184)   DRY( 59,185)   
    DRY( 59,186)   DRY( 59,187)   DRY( 59,188)   DRY( 59,189)   DRY( 59,190)   
    DRY( 59,191)   DRY( 59,192)   DRY( 59,193)   DRY( 59,194)   DRY( 59,195)   
    DRY( 59,196)   DRY( 59,197)   DRY( 59,198)   DRY( 59,199)   DRY( 59,200)   
    DRY( 59,201)   DRY( 59,202)   DRY( 59,203)   DRY( 59,204)   DRY( 59,205)   
    DRY( 59,206)   DRY( 59,207)   DRY( 59,208)   DRY( 59,209)   DRY( 59,210)   
    DRY( 59,211)   DRY( 59,212)   DRY( 59,213)   DRY( 59,214)   DRY( 59,215)   
    DRY( 59,216)   DRY( 59,217)   DRY( 59,218)   DRY( 59,219)   DRY( 59,220)   
    DRY( 60,  1)   DRY( 60,  2)   DRY( 60,  3)   DRY( 60,  4)   DRY( 60,  5)   
    DRY( 60,  6)   DRY( 60,  7)   DRY( 60,  8)   DRY( 60,  9)   DRY( 60, 10)   
    DRY( 60, 11)   DRY( 60, 12)   DRY( 60, 13)   DRY( 60, 14)   DRY( 60, 15)   
    DRY( 60, 16)   DRY( 60, 17)   DRY( 60, 18)   DRY( 60, 19)   DRY( 60, 20)   
    DRY( 60, 21)   DRY( 60, 22)   DRY( 60, 23)   DRY( 60, 24)   DRY( 60, 25)   
    DRY( 60, 26)   DRY( 60, 27)   DRY( 60, 28)   DRY( 60, 29)   DRY( 60, 30)   
    DRY( 60, 31)   DRY( 60, 32)   DRY( 60, 33)   DRY( 60, 34)   DRY( 60, 35)   
    DRY( 60, 36)   DRY( 60, 37)   DRY( 60, 38)   DRY( 60, 39)   DRY( 60, 40)   
    DRY( 60, 41)   DRY( 60, 42)   DRY( 60, 43)   DRY( 60, 44)   DRY( 60, 45)   
    DRY( 60, 46)   DRY( 60, 47)   DRY( 60, 48)   DRY( 60, 49)   DRY( 60, 50)   
    DRY( 60, 51)   DRY( 60, 52)   DRY( 60, 53)   DRY( 60, 54)   DRY( 60, 55)   
    DRY( 60, 56)   DRY( 60, 57)   DRY( 60, 58)   DRY( 60, 59)   DRY( 60, 60)   
    DRY( 60, 61)   DRY( 60, 62)   DRY( 60, 63)   DRY( 60, 64)   DRY( 60, 65)   
    DRY( 60, 66)   DRY( 60, 67)   DRY( 60, 68)   DRY( 60, 69)   DRY( 60, 70)   
    DRY( 60, 71)   DRY( 60, 72)   DRY( 60, 73)   DRY( 60, 74)   DRY( 60, 75)   
    DRY( 60, 76)   DRY( 60, 77)   DRY( 60, 78)   DRY( 60, 79)   DRY( 60, 80)   
    DRY( 60, 81)   DRY( 60, 82)   DRY( 60, 83)   DRY( 60, 84)   DRY( 60, 85)   
    DRY( 60, 86)   DRY( 60, 87)   DRY( 60, 88)   DRY( 60, 89)   DRY( 60, 90)   
    DRY( 60, 91)   DRY( 60, 92)   DRY( 60, 93)   DRY( 60, 94)   DRY( 60, 95)   
    DRY( 60, 96)   DRY( 60, 97)   DRY( 60, 98)   DRY( 60, 99)   DRY( 60,100)   
    DRY( 60,101)   DRY( 60,102)   DRY( 60,103)   DRY( 60,104)   DRY( 60,105)   
    DRY( 60,106)   DRY( 60,107)   DRY( 60,108)   DRY( 60,109)   DRY( 60,110)   
    DRY( 60,111)   DRY( 60,112)   DRY( 60,113)   DRY( 60,114)   DRY( 60,115)   
    DRY( 60,116)   DRY( 60,117)   DRY( 60,118)   DRY( 60,119)   DRY( 60,120)   
    DRY( 60,121)   DRY( 60,122)   DRY( 60,123)   DRY( 60,124)   DRY( 60,125)   
    DRY( 60,126)   DRY( 60,127)   DRY( 60,128)   DRY( 60,129)   DRY( 60,130)   
    DRY( 60,131)   DRY( 60,132)   DRY( 60,133)   DRY( 60,134)   DRY( 60,135)   
    DRY( 60,136)   DRY( 60,137)   DRY( 60,138)   DRY( 60,139)   DRY( 60,140)   
    DRY( 60,141)   DRY( 60,142)   DRY( 60,143)   DRY( 60,144)   DRY( 60,145)   
    DRY( 60,146)   DRY( 60,147)   DRY( 60,148)   DRY( 60,149)   DRY( 60,150)   
    DRY( 60,151)   DRY( 60,152)   DRY( 60,153)   DRY( 60,154)   DRY( 60,155)   
    DRY( 60,156)   DRY( 60,157)   DRY( 60,158)   DRY( 60,159)   DRY( 60,160)   
    DRY( 60,161)   DRY( 60,162)   DRY( 60,163)   DRY( 60,164)   DRY( 60,165)   
    DRY( 60,166)   DRY( 60,167)   DRY( 60,168)   DRY( 60,169)   DRY( 60,170)   
    DRY( 60,171)   DRY( 60,172)   DRY( 60,173)   DRY( 60,174)   DRY( 60,175)   
    DRY( 60,176)   DRY( 60,177)   DRY( 60,178)   DRY( 60,179)   DRY( 60,180)   
    DRY( 60,181)   DRY( 60,182)   DRY( 60,183)   DRY( 60,184)   DRY( 60,185)   
    DRY( 60,186)   DRY( 60,187)   DRY( 60,188)   DRY( 60,189)   DRY( 60,190)   
    DRY( 60,191)   DRY( 60,192)   DRY( 60,193)   DRY( 60,194)   DRY( 60,195)   
    DRY( 60,196)   DRY( 60,197)   DRY( 60,198)   DRY( 60,199)   DRY( 60,200)   
    DRY( 60,201)   DRY( 60,202)   DRY( 60,203)   DRY( 60,204)   DRY( 60,205)   
    DRY( 60,206)   DRY( 60,207)   DRY( 60,208)   DRY( 60,209)   DRY( 60,210)   
    DRY( 60,211)   DRY( 60,212)   DRY( 60,213)   DRY( 60,214)   DRY( 60,215)   
    DRY( 60,216)   DRY( 60,217)   DRY( 60,218)   DRY( 60,219)   DRY( 60,220)   
    DRY( 61,  1)   DRY( 61,  2)   DRY( 61,  3)   DRY( 61,  4)   DRY( 61,  5)   
    DRY( 61,  6)   DRY( 61,  7)   DRY( 61,  8)   DRY( 61,  9)   DRY( 61, 10)   
    DRY( 61, 11)   DRY( 61, 12)   DRY( 61, 13)   DRY( 61, 14)   DRY( 61, 15)   
    DRY( 61, 16)   DRY( 61, 17)   DRY( 61, 18)   DRY( 61, 19)   DRY( 61, 20)   
    DRY( 61, 21)   DRY( 61, 22)   DRY( 61, 23)   DRY( 61, 24)   DRY( 61, 25)   
    DRY( 61, 26)   DRY( 61, 27)   DRY( 61, 28)   DRY( 61, 29)   DRY( 61, 30)   
    DRY( 61, 31)   DRY( 61, 32)   DRY( 61, 33)   DRY( 61, 34)   DRY( 61, 35)   
    DRY( 61, 36)   DRY( 61, 37)   DRY( 61, 38)   DRY( 61, 39)   DRY( 61, 40)   
    DRY( 61, 41)   DRY( 61, 42)   DRY( 61, 43)   DRY( 61, 44)   DRY( 61, 45)   
    DRY( 61, 46)   DRY( 61, 47)   DRY( 61, 48)   DRY( 61, 49)   DRY( 61, 50)   
    DRY( 61, 51)   DRY( 61, 52)   DRY( 61, 53)   DRY( 61, 54)   DRY( 61, 55)   
    DRY( 61, 56)   DRY( 61, 57)   DRY( 61, 58)   DRY( 61, 59)   DRY( 61, 60)   
    DRY( 61, 61)   DRY( 61, 62)   DRY( 61, 63)   DRY( 61, 64)   DRY( 61, 65)   
    DRY( 61, 66)   DRY( 61, 67)   DRY( 61, 68)   DRY( 61, 69)   DRY( 61, 70)   
    DRY( 61, 71)   DRY( 61, 72)   DRY( 61, 73)   DRY( 61, 74)   DRY( 61, 75)   
    DRY( 61, 76)   DRY( 61, 77)   DRY( 61, 78)   DRY( 61, 79)   DRY( 61, 80)   
    DRY( 61, 81)   DRY( 61, 82)   DRY( 61, 83)   DRY( 61, 84)   DRY( 61, 85)   
    DRY( 61, 86)   DRY( 61, 87)   DRY( 61, 88)   DRY( 61, 89)   DRY( 61, 90)   
    DRY( 61, 91)   DRY( 61, 92)   DRY( 61, 93)   DRY( 61, 94)   DRY( 61, 95)   
    DRY( 61, 96)   DRY( 61, 97)   DRY( 61, 98)   DRY( 61, 99)   DRY( 61,100)   
    DRY( 61,101)   DRY( 61,102)   DRY( 61,103)   DRY( 61,104)   DRY( 61,105)   
    DRY( 61,106)   DRY( 61,107)   DRY( 61,108)   DRY( 61,109)   DRY( 61,110)   
    DRY( 61,111)   DRY( 61,112)   DRY( 61,113)   DRY( 61,114)   DRY( 61,115)   
    DRY( 61,116)   DRY( 61,117)   DRY( 61,118)   DRY( 61,119)   DRY( 61,120)   
    DRY( 61,121)   DRY( 61,122)   DRY( 61,123)   DRY( 61,124)   DRY( 61,125)   
    DRY( 61,126)   DRY( 61,127)   DRY( 61,128)   DRY( 61,129)   DRY( 61,130)   
    DRY( 61,131)   DRY( 61,132)   DRY( 61,133)   DRY( 61,134)   DRY( 61,135)   
    DRY( 61,136)   DRY( 61,137)   DRY( 61,138)   DRY( 61,139)   DRY( 61,140)   
    DRY( 61,141)   DRY( 61,142)   DRY( 61,143)   DRY( 61,144)   DRY( 61,145)   
    DRY( 61,146)   DRY( 61,147)   DRY( 61,148)   DRY( 61,149)   DRY( 61,150)   
    DRY( 61,151)   DRY( 61,152)   DRY( 61,153)   DRY( 61,154)   DRY( 61,155)   
    DRY( 61,156)   DRY( 61,157)   DRY( 61,158)   DRY( 61,159)   DRY( 61,160)   
    DRY( 61,161)   DRY( 61,162)   DRY( 61,163)   DRY( 61,164)   DRY( 61,165)   
    DRY( 61,166)   DRY( 61,167)   DRY( 61,168)   DRY( 61,169)   DRY( 61,170)   
    DRY( 61,171)   DRY( 61,172)   DRY( 61,173)   DRY( 61,174)   DRY( 61,175)   
    DRY( 61,176)   DRY( 61,177)   DRY( 61,178)   DRY( 61,179)   DRY( 61,180)   
    DRY( 61,181)   DRY( 61,182)   DRY( 61,183)   DRY( 61,184)   DRY( 61,185)   
    DRY( 61,186)   DRY( 61,187)   DRY( 61,188)   DRY( 61,189)   DRY( 61,190)   
    DRY( 61,191)   DRY( 61,192)   DRY( 61,193)   DRY( 61,194)   DRY( 61,195)   
    DRY( 61,196)   DRY( 61,197)   DRY( 61,198)   DRY( 61,199)   DRY( 61,200)   
    DRY( 61,201)   DRY( 61,202)   DRY( 61,203)   DRY( 61,204)   DRY( 61,205)   
    DRY( 61,206)   DRY( 61,207)   DRY( 61,208)   DRY( 61,209)   DRY( 61,210)   
    DRY( 61,211)   DRY( 61,212)   DRY( 61,213)   DRY( 61,214)   DRY( 61,215)   
    DRY( 61,216)   DRY( 61,217)   DRY( 61,218)   DRY( 61,219)   DRY( 61,220)   
    DRY( 62,  1)   DRY( 62,  2)   DRY( 62,  3)   DRY( 62,  4)   DRY( 62,  5)   
    DRY( 62,  6)   DRY( 62,  7)   DRY( 62,  8)   DRY( 62,  9)   DRY( 62, 10)   
    DRY( 62, 11)   DRY( 62, 12)   DRY( 62, 13)   DRY( 62, 14)   DRY( 62, 15)   
    DRY( 62, 16)   DRY( 62, 17)   DRY( 62, 18)   DRY( 62, 19)   DRY( 62, 20)   
    DRY( 62, 21)   DRY( 62, 22)   DRY( 62, 23)   DRY( 62, 24)   DRY( 62, 25)   
    DRY( 62, 26)   DRY( 62, 27)   DRY( 62, 28)   DRY( 62, 29)   DRY( 62, 30)   
    DRY( 62, 31)   DRY( 62, 32)   DRY( 62, 33)   DRY( 62, 34)   DRY( 62, 35)   
    DRY( 62, 36)   DRY( 62, 37)   DRY( 62, 38)   DRY( 62, 39)   DRY( 62, 40)   
    DRY( 62, 41)   DRY( 62, 42)   DRY( 62, 43)   DRY( 62, 44)   DRY( 62, 45)   
    DRY( 62, 46)   DRY( 62, 47)   DRY( 62, 48)   DRY( 62, 49)   DRY( 62, 50)   
    DRY( 62, 51)   DRY( 62, 52)   DRY( 62, 53)   DRY( 62, 54)   DRY( 62, 55)   
    DRY( 62, 56)   DRY( 62, 57)   DRY( 62, 58)   DRY( 62, 59)   DRY( 62, 60)   
    DRY( 62, 61)   DRY( 62, 62)   DRY( 62, 63)   DRY( 62, 64)   DRY( 62, 65)   
    DRY( 62, 66)   DRY( 62, 67)   DRY( 62, 68)   DRY( 62, 69)   DRY( 62, 70)   
    DRY( 62, 71)   DRY( 62, 72)   DRY( 62, 73)   DRY( 62, 74)   DRY( 62, 75)   
    DRY( 62, 76)   DRY( 62, 77)   DRY( 62, 78)   DRY( 62, 79)   DRY( 62, 80)   
    DRY( 62, 81)   DRY( 62, 82)   DRY( 62, 83)   DRY( 62, 84)   DRY( 62, 85)   
    DRY( 62, 86)   DRY( 62, 87)   DRY( 62, 88)   DRY( 62, 89)   DRY( 62, 90)   
    DRY( 62, 91)   DRY( 62, 92)   DRY( 62, 93)   DRY( 62, 94)   DRY( 62, 95)   
    DRY( 62, 96)   DRY( 62, 97)   DRY( 62, 98)   DRY( 62, 99)   DRY( 62,100)   
    DRY( 62,101)   DRY( 62,102)   DRY( 62,103)   DRY( 62,104)   DRY( 62,105)   
    DRY( 62,106)   DRY( 62,107)   DRY( 62,108)   DRY( 62,109)   DRY( 62,110)   
    DRY( 62,111)   DRY( 62,112)   DRY( 62,113)   DRY( 62,114)   DRY( 62,115)   
    DRY( 62,116)   DRY( 62,117)   DRY( 62,118)   DRY( 62,119)   DRY( 62,120)   
    DRY( 62,121)   DRY( 62,122)   DRY( 62,123)   DRY( 62,124)   DRY( 62,125)   
    DRY( 62,126)   DRY( 62,127)   DRY( 62,128)   DRY( 62,129)   DRY( 62,130)   
    DRY( 62,131)   DRY( 62,132)   DRY( 62,133)   DRY( 62,134)   DRY( 62,135)   
    DRY( 62,136)   DRY( 62,137)   DRY( 62,138)   DRY( 62,139)   DRY( 62,140)   
    DRY( 62,141)   DRY( 62,142)   DRY( 62,143)   DRY( 62,144)   DRY( 62,145)   
    DRY( 62,146)   DRY( 62,147)   DRY( 62,148)   DRY( 62,149)   DRY( 62,150)   
    DRY( 62,151)   DRY( 62,152)   DRY( 62,153)   DRY( 62,154)   DRY( 62,155)   
    DRY( 62,156)   DRY( 62,157)   DRY( 62,158)   DRY( 62,159)   DRY( 62,160)   
    DRY( 62,161)   DRY( 62,162)   DRY( 62,163)   DRY( 62,164)   DRY( 62,165)   
    DRY( 62,166)   DRY( 62,167)   DRY( 62,168)   DRY( 62,169)   DRY( 62,170)   
    DRY( 62,171)   DRY( 62,172)   DRY( 62,173)   DRY( 62,174)   DRY( 62,175)   
    DRY( 62,176)   DRY( 62,177)   DRY( 62,178)   DRY( 62,179)   DRY( 62,180)   
    DRY( 62,181)   DRY( 62,182)   DRY( 62,183)   DRY( 62,184)   DRY( 62,185)   
    DRY( 62,186)   DRY( 62,187)   DRY( 62,188)   DRY( 62,189)   DRY( 62,190)   
    DRY( 62,191)   DRY( 62,192)   DRY( 62,193)   DRY( 62,194)   DRY( 62,195)   
    DRY( 62,196)   DRY( 62,197)   DRY( 62,198)   DRY( 62,199)   DRY( 62,200)   
    DRY( 62,201)   DRY( 62,202)   DRY( 62,203)   DRY( 62,204)   DRY( 62,205)   
    DRY( 62,206)   DRY( 62,207)   DRY( 62,208)   DRY( 62,209)   DRY( 62,210)   
    DRY( 62,211)   DRY( 62,212)   DRY( 62,213)   DRY( 62,214)   DRY( 62,215)   
    DRY( 62,216)   DRY( 62,217)   DRY( 62,218)   DRY( 62,219)   DRY( 62,220)   
    DRY( 63,  1)   DRY( 63,  2)   DRY( 63,  3)   DRY( 63,  4)   DRY( 63,  5)   
    DRY( 63,  6)   DRY( 63,  7)   DRY( 63,  8)   DRY( 63,  9)   DRY( 63, 10)   
    DRY( 63, 11)   DRY( 63, 12)   DRY( 63, 13)   DRY( 63, 14)   DRY( 63, 15)   
    DRY( 63, 16)   DRY( 63, 17)   DRY( 63, 18)   DRY( 63, 19)   DRY( 63, 20)   
    DRY( 63, 21)   DRY( 63, 22)   DRY( 63, 23)   DRY( 63, 24)   DRY( 63, 25)   
    DRY( 63, 26)   DRY( 63, 27)   DRY( 63, 28)   DRY( 63, 29)   DRY( 63, 30)   
    DRY( 63, 31)   DRY( 63, 32)   DRY( 63, 33)   DRY( 63, 34)   DRY( 63, 35)   
    DRY( 63, 36)   DRY( 63, 37)   DRY( 63, 38)   DRY( 63, 39)   DRY( 63, 40)   
    DRY( 63, 41)   DRY( 63, 42)   DRY( 63, 43)   DRY( 63, 44)   DRY( 63, 45)   
    DRY( 63, 46)   DRY( 63, 47)   DRY( 63, 48)   DRY( 63, 49)   DRY( 63, 50)   
    DRY( 63, 51)   DRY( 63, 52)   DRY( 63, 53)   DRY( 63, 54)   DRY( 63, 55)   
    DRY( 63, 56)   DRY( 63, 57)   DRY( 63, 58)   DRY( 63, 59)   DRY( 63, 60)   
    DRY( 63, 61)   DRY( 63, 62)   DRY( 63, 63)   DRY( 63, 64)   DRY( 63, 65)   
    DRY( 63, 66)   DRY( 63, 67)   DRY( 63, 68)   DRY( 63, 69)   DRY( 63, 70)   
    DRY( 63, 71)   DRY( 63, 72)   DRY( 63, 73)   DRY( 63, 74)   DRY( 63, 75)   
    DRY( 63, 76)   DRY( 63, 77)   DRY( 63, 78)   DRY( 63, 79)   DRY( 63, 80)   
    DRY( 63, 81)   DRY( 63, 82)   DRY( 63, 83)   DRY( 63, 84)   DRY( 63, 85)   
    DRY( 63, 86)   DRY( 63, 87)   DRY( 63, 88)   DRY( 63, 89)   DRY( 63, 90)   
    DRY( 63, 91)   DRY( 63, 92)   DRY( 63, 93)   DRY( 63, 94)   DRY( 63, 95)   
    DRY( 63, 96)   DRY( 63, 97)   DRY( 63, 98)   DRY( 63, 99)   DRY( 63,100)   
    DRY( 63,101)   DRY( 63,102)   DRY( 63,103)   DRY( 63,104)   DRY( 63,105)   
    DRY( 63,106)   DRY( 63,107)   DRY( 63,108)   DRY( 63,109)   DRY( 63,110)   
    DRY( 63,111)   DRY( 63,112)   DRY( 63,113)   DRY( 63,114)   DRY( 63,115)   
    DRY( 63,116)   DRY( 63,117)   DRY( 63,118)   DRY( 63,119)   DRY( 63,120)   
    DRY( 63,121)   DRY( 63,122)   DRY( 63,123)   DRY( 63,124)   DRY( 63,125)   
    DRY( 63,126)   DRY( 63,127)   DRY( 63,128)   DRY( 63,129)   DRY( 63,130)   
    DRY( 63,131)   DRY( 63,132)   DRY( 63,133)   DRY( 63,134)   DRY( 63,135)   
    DRY( 63,136)   DRY( 63,137)   DRY( 63,138)   DRY( 63,139)   DRY( 63,140)   
    DRY( 63,141)   DRY( 63,142)   DRY( 63,143)   DRY( 63,144)   DRY( 63,145)   
    DRY( 63,146)   DRY( 63,147)   DRY( 63,148)   DRY( 63,149)   DRY( 63,150)   
    DRY( 63,151)   DRY( 63,152)   DRY( 63,153)   DRY( 63,154)   DRY( 63,155)   
    DRY( 63,156)   DRY( 63,157)   DRY( 63,158)   DRY( 63,159)   DRY( 63,160)   
    DRY( 63,161)   DRY( 63,162)   DRY( 63,163)   DRY( 63,164)   DRY( 63,165)   
    DRY( 63,166)   DRY( 63,167)   DRY( 63,168)   DRY( 63,169)   DRY( 63,170)   
    DRY( 63,171)   DRY( 63,172)   DRY( 63,173)   DRY( 63,174)   DRY( 63,175)   
    DRY( 63,176)   DRY( 63,177)   DRY( 63,178)   DRY( 63,179)   DRY( 63,180)   
    DRY( 63,181)   DRY( 63,182)   DRY( 63,183)   DRY( 63,184)   DRY( 63,185)   
    DRY( 63,186)   DRY( 63,187)   DRY( 63,188)   DRY( 63,189)   DRY( 63,190)   
    DRY( 63,191)   DRY( 63,192)   DRY( 63,193)   DRY( 63,194)   DRY( 63,195)   
    DRY( 63,196)   DRY( 63,197)   DRY( 63,198)   DRY( 63,199)   DRY( 63,200)   
    DRY( 63,201)   DRY( 63,202)   DRY( 63,203)   DRY( 63,204)   DRY( 63,205)   
    DRY( 63,206)   DRY( 63,207)   DRY( 63,208)   DRY( 63,209)   DRY( 63,210)   
    DRY( 63,211)   DRY( 63,212)   DRY( 63,213)   DRY( 63,214)   DRY( 63,215)   
    DRY( 63,216)   DRY( 63,217)   DRY( 63,218)   DRY( 63,219)   DRY( 63,220)   
    DRY( 64,  1)   DRY( 64,  2)   DRY( 64,  3)   DRY( 64,  4)   DRY( 64,  5)   
    DRY( 64,  6)   DRY( 64,  7)   DRY( 64,  8)   DRY( 64,  9)   DRY( 64, 10)   
    DRY( 64, 11)   DRY( 64, 12)   DRY( 64, 13)   DRY( 64, 14)   DRY( 64, 15)   
    DRY( 64, 16)   DRY( 64, 17)   DRY( 64, 18)   DRY( 64, 19)   DRY( 64, 20)   
    DRY( 64, 21)   DRY( 64, 22)   DRY( 64, 23)   DRY( 64, 24)   DRY( 64, 25)   
    DRY( 64, 26)   DRY( 64, 27)   DRY( 64, 28)   DRY( 64, 29)   DRY( 64, 30)   
    DRY( 64, 31)   DRY( 64, 32)   DRY( 64, 33)   DRY( 64, 34)   DRY( 64, 35)   
    DRY( 64, 36)   DRY( 64, 37)   DRY( 64, 38)   DRY( 64, 39)   DRY( 64, 40)   
    DRY( 64, 41)   DRY( 64, 42)   DRY( 64, 43)   DRY( 64, 44)   DRY( 64, 45)   
    DRY( 64, 46)   DRY( 64, 47)   DRY( 64, 48)   DRY( 64, 49)   DRY( 64, 50)   
    DRY( 64, 51)   DRY( 64, 52)   DRY( 64, 53)   DRY( 64, 54)   DRY( 64, 55)   
    DRY( 64, 56)   DRY( 64, 57)   DRY( 64, 58)   DRY( 64, 59)   DRY( 64, 60)   
    DRY( 64, 61)   DRY( 64, 62)   DRY( 64, 63)   DRY( 64, 64)   DRY( 64, 65)   
    DRY( 64, 66)   DRY( 64, 67)   DRY( 64, 68)   DRY( 64, 69)   DRY( 64, 70)   
    DRY( 64, 71)   DRY( 64, 72)   DRY( 64, 73)   DRY( 64, 74)   DRY( 64, 75)   
    DRY( 64, 76)   DRY( 64, 77)   DRY( 64, 78)   DRY( 64, 79)   DRY( 64, 80)   
    DRY( 64, 81)   DRY( 64, 82)   DRY( 64, 83)   DRY( 64, 84)   DRY( 64, 85)   
    DRY( 64, 86)   DRY( 64, 87)   DRY( 64, 88)   DRY( 64, 89)   DRY( 64, 90)   
    DRY( 64, 91)   DRY( 64, 92)   DRY( 64, 93)   DRY( 64, 94)   DRY( 64, 95)   
    DRY( 64, 96)   DRY( 64, 97)   DRY( 64, 98)   DRY( 64, 99)   DRY( 64,100)   
    DRY( 64,101)   DRY( 64,102)   DRY( 64,103)   DRY( 64,104)   DRY( 64,105)   
    DRY( 64,106)   DRY( 64,107)   DRY( 64,108)   DRY( 64,109)   DRY( 64,110)   
    DRY( 64,111)   DRY( 64,112)   DRY( 64,113)   DRY( 64,114)   DRY( 64,115)   
    DRY( 64,116)   DRY( 64,117)   DRY( 64,118)   DRY( 64,119)   DRY( 64,120)   
    DRY( 64,121)   DRY( 64,122)   DRY( 64,123)   DRY( 64,124)   DRY( 64,125)   
    DRY( 64,126)   DRY( 64,127)   DRY( 64,128)   DRY( 64,129)   DRY( 64,130)   
    DRY( 64,131)   DRY( 64,132)   DRY( 64,133)   DRY( 64,134)   DRY( 64,135)   
    DRY( 64,136)   DRY( 64,137)   DRY( 64,138)   DRY( 64,139)   DRY( 64,140)   
    DRY( 64,141)   DRY( 64,142)   DRY( 64,143)   DRY( 64,144)   DRY( 64,145)   
    DRY( 64,146)   DRY( 64,147)   DRY( 64,148)   DRY( 64,149)   DRY( 64,150)   
    DRY( 64,151)   DRY( 64,152)   DRY( 64,153)   DRY( 64,154)   DRY( 64,155)   
    DRY( 64,156)   DRY( 64,157)   DRY( 64,158)   DRY( 64,159)   DRY( 64,160)   
    DRY( 64,161)   DRY( 64,162)   DRY( 64,163)   DRY( 64,164)   DRY( 64,165)   
    DRY( 64,166)   DRY( 64,167)   DRY( 64,168)   DRY( 64,169)   DRY( 64,170)   
    DRY( 64,171)   DRY( 64,172)   DRY( 64,173)   DRY( 64,174)   DRY( 64,175)   
    DRY( 64,176)   DRY( 64,177)   DRY( 64,178)   DRY( 64,179)   DRY( 64,180)   
    DRY( 64,181)   DRY( 64,182)   DRY( 64,183)   DRY( 64,184)   DRY( 64,185)   
    DRY( 64,186)   DRY( 64,187)   DRY( 64,188)   DRY( 64,189)   DRY( 64,190)   
    DRY( 64,191)   DRY( 64,192)   DRY( 64,193)   DRY( 64,194)   DRY( 64,195)   
    DRY( 64,196)   DRY( 64,197)   DRY( 64,198)   DRY( 64,199)   DRY( 64,200)   
    DRY( 64,201)   DRY( 64,202)   DRY( 64,203)   DRY( 64,204)   DRY( 64,205)   
    DRY( 64,206)   DRY( 64,207)   DRY( 64,208)   DRY( 64,209)   DRY( 64,210)   
    DRY( 64,211)   DRY( 64,212)   DRY( 64,213)   DRY( 64,214)   DRY( 64,215)   
    DRY( 64,216)   DRY( 64,217)   DRY( 64,218)   DRY( 64,219)   DRY( 64,220)   

 CELL CONVERSIONS FOR ITER.=  3  LAYER= 22  STEP=  1  PERIOD=   1   (ROW,COL)
    DRY( 60, 21)   DRY( 60, 22)   DRY( 60, 23)   DRY( 60, 24)   DRY( 60, 25)   
    DRY( 60, 26)   DRY( 60, 27)   DRY( 60, 28)   DRY( 60, 29)   DRY( 60, 30)   
    DRY( 60, 31)   DRY( 60, 32)   DRY( 60, 33)   DRY( 60, 34)   DRY( 60, 35)   
    DRY( 60, 36)   DRY( 61,  1)   DRY( 61,  2)   DRY( 61,  3)   DRY( 61,  4)   
    DRY( 61,  5)   DRY( 61,  6)   DRY( 61,  7)   DRY( 61,  8)   DRY( 61,  9)   
    DRY( 61, 10)   DRY( 61, 11)   DRY( 61, 12)   DRY( 61, 13)   DRY( 61, 14)   
    DRY( 61, 15)   DRY( 61, 16)   DRY( 61, 17)   DRY( 61, 18)   DRY( 61, 19)   
    DRY( 61, 20)   DRY( 61, 21)   DRY( 61, 22)   DRY( 61, 23)   DRY( 61, 24)   
    DRY( 61, 25)   DRY( 61, 26)   DRY( 61, 27)   DRY( 61, 28)   DRY( 61, 29)   
    DRY( 61, 30)   DRY( 61, 31)   DRY( 61, 32)   DRY( 61, 33)   DRY( 61, 34)   
    DRY( 61, 35)   DRY( 61, 36)   DRY( 61, 37)   DRY( 61, 38)   DRY( 61, 39)   
    DRY( 61, 40)   DRY( 61, 41)   DRY( 61, 42)   DRY( 61, 43)   DRY( 61, 44)   
    DRY( 61, 45)   DRY( 61, 46)   DRY( 61, 47)   DRY( 61, 48)   DRY( 61, 49)   
    DRY( 61, 50)   DRY( 61, 51)   DRY( 61, 52)   DRY( 61, 53)   DRY( 61, 54)   
    DRY( 61, 55)   DRY( 61, 56)   DRY( 61, 57)   DRY( 61, 58)   DRY( 61, 59)   
    DRY( 61, 60)   DRY( 61, 61)   DRY( 61, 62)   DRY( 61, 63)   DRY( 61, 64)   
    DRY( 61, 65)   DRY( 61, 66)   DRY( 61, 67)   DRY( 61, 68)   DRY( 61, 69)   
    DRY( 61, 70)   DRY( 61, 71)   DRY( 61, 72)   DRY( 61, 73)   DRY( 61, 74)   
    DRY( 61, 75)   DRY( 61, 76)   DRY( 61, 77)   DRY( 61, 78)   DRY( 61, 79)   
    DRY( 61, 80)   DRY( 61, 81)   DRY( 61, 82)   DRY( 61, 83)   DRY( 62,  1)   
    DRY( 62,  2)   DRY( 62,  3)   DRY( 62,  4)   DRY( 62,  5)   DRY( 62,  6)   
    DRY( 62,  7)   DRY( 62,  8)   DRY( 62,  9)   DRY( 62, 10)   DRY( 62, 11)   
    DRY( 62, 12)   DRY( 62, 13)   DRY( 62, 14)   DRY( 62, 15)   DRY( 62, 16)   
    DRY( 62, 17)   DRY( 62, 18)   DRY( 62, 19)   DRY( 62, 20)   DRY( 62, 21)   
    DRY( 62, 22)   DRY( 62, 23)   DRY( 62, 24)   DRY( 62, 25)   DRY( 62, 26)   
    DRY( 62, 27)   DRY( 62, 28)   DRY( 62, 29)   DRY( 62, 30)   DRY( 62, 31)   
    DRY( 62, 32)   DRY( 62, 33)   DRY( 62, 34)   DRY( 62, 35)   DRY( 62, 36)   
    DRY( 62, 37)   DRY( 62, 38)   DRY( 62, 39)   DRY( 62, 40)   DRY( 62, 41)   
    DRY( 62, 42)   DRY( 62, 43)   DRY( 62, 44)   DRY( 62, 45)   DRY( 62, 46)   
    DRY( 62, 47)   DRY( 62, 48)   DRY( 62, 49)   DRY( 62, 50)   DRY( 62, 51)   
    DRY( 62, 52)   DRY( 62, 53)   DRY( 62, 54)   DRY( 62, 55)   DRY( 62, 56)   
    DRY( 62, 57)   DRY( 62, 58)   DRY( 62, 59)   DRY( 62, 60)   DRY( 62, 61)   
    DRY( 62, 62)   DRY( 62, 63)   DRY( 62, 64)   DRY( 62, 65)   DRY( 62, 66)   
    DRY( 62, 67)   DRY( 62, 68)   DRY( 62, 69)   DRY( 62, 70)   DRY( 62, 71)   
    DRY( 62, 72)   DRY( 62, 73)   DRY( 62, 74)   DRY( 62, 75)   DRY( 62, 76)   
    DRY( 62, 77)   DRY( 62, 78)   DRY( 62, 79)   DRY( 62, 80)   DRY( 62, 81)   
    DRY( 62, 82)   DRY( 62, 83)   DRY( 62, 84)   DRY( 62, 85)   DRY( 62, 86)   
    DRY( 62, 87)   DRY( 62, 88)   DRY( 62, 89)   DRY( 62, 90)   DRY( 62, 91)   
    DRY( 62, 92)   DRY( 62, 93)   DRY( 62, 94)   DRY( 62, 95)   DRY( 62, 96)   
    DRY( 62, 97)   DRY( 62, 98)   DRY( 62, 99)   DRY( 62,100)   DRY( 62,101)   
    DRY( 62,102)   DRY( 62,103)   DRY( 62,104)   DRY( 62,105)   DRY( 62,106)   
    DRY( 62,107)   DRY( 62,108)   DRY( 62,109)   DRY( 62,110)   DRY( 62,111)   
    DRY( 62,112)   DRY( 62,113)   DRY( 62,114)   DRY( 62,115)   DRY( 62,116)   
    DRY( 62,117)   DRY( 62,118)   DRY( 62,119)   DRY( 62,120)   DRY( 62,121)   
    DRY( 62,122)   DRY( 62,123)   DRY( 62,124)   DRY( 62,125)   DRY( 62,126)   
    DRY( 62,127)   DRY( 62,128)   DRY( 63,  1)   DRY( 63,  2)   DRY( 63,  3)   
    DRY( 63,  4)   DRY( 63,  5)   DRY( 63,  6)   DRY( 63,  7)   DRY( 63,  8)   
    DRY( 63,  9)   DRY( 63, 10)   DRY( 63, 11)   DRY( 63, 12)   DRY( 63, 13)   
    DRY( 63, 14)   DRY( 63, 15)   DRY( 63, 16)   DRY( 63, 17)   DRY( 63, 18)   
    DRY( 63, 19)   DRY( 63, 20)   DRY( 63, 21)   DRY( 63, 22)   DRY( 63, 23)   
    DRY( 63, 24)   DRY( 63, 25)   DRY( 63, 26)   DRY( 63, 27)   DRY( 63, 28)   
    DRY( 63, 29)   DRY( 63, 30)   DRY( 63, 31)   DRY( 63, 32)   DRY( 63, 33)   
    DRY( 63, 34)   DRY( 63, 35)   DRY( 63, 36)   DRY( 63, 37)   DRY( 63, 38)   
    DRY( 63, 39)   DRY( 63, 40)   DRY( 63, 41)   DRY( 63, 42)   DRY( 63, 43)   
    DRY( 63, 44)   DRY( 63, 45)   DRY( 63, 46)   DRY( 63, 47)   DRY( 63, 48)   
    DRY( 63, 49)   DRY( 63, 50)   DRY( 63, 51)   DRY( 63, 52)   DRY( 63, 53)   
    DRY( 63, 54)   DRY( 63, 55)   DRY( 63, 56)   DRY( 63, 57)   DRY( 63, 58)   
    DRY( 63, 59)   DRY( 63, 60)   DRY( 63, 61)   DRY( 63, 62)   DRY( 63, 63)   
    DRY( 63, 64)   DRY( 63, 65)   DRY( 63, 66)   DRY( 63, 67)   DRY( 63, 68)   
    DRY( 63, 69)   DRY( 63, 70)   DRY( 63, 71)   DRY( 63, 72)   DRY( 63, 73)   
    DRY( 63, 74)   DRY( 63, 75)   DRY( 63, 76)   DRY( 63, 77)   DRY( 63, 78)   
    DRY( 63, 79)   DRY( 63, 80)   DRY( 63, 81)   DRY( 63, 82)   DRY( 63, 83)   
    DRY( 63, 84)   DRY( 63, 85)   DRY( 63, 86)   DRY( 63, 87)   DRY( 63, 88)   
    DRY( 63, 89)   DRY( 63, 90)   DRY( 63, 91)   DRY( 63, 92)   DRY( 63, 93)   
    DRY( 63, 94)   DRY( 63, 95)   DRY( 63, 96)   DRY( 63, 97)   DRY( 63, 98)   
    DRY( 63, 99)   DRY( 63,100)   DRY( 63,101)   DRY( 63,102)   DRY( 63,103)   
    DRY( 63,104)   DRY( 63,105)   DRY( 63,106)   DRY( 63,107)   DRY( 63,108)   
    DRY( 63,109)   DRY( 63,110)   DRY( 63,111)   DRY( 63,112)   DRY( 63,113)   
    DRY( 63,114)   DRY( 63,115)   DRY( 63,116)   DRY( 63,117)   DRY( 63,118)   
    DRY( 63,119)   DRY( 63,120)   DRY( 63,121)   DRY( 63,122)   DRY( 63,123)   
    DRY( 63,124)   DRY( 63,125)   DRY( 63,126)   DRY( 63,127)   DRY( 63,128)   
    DRY( 63,129)   DRY( 63,130)   DRY( 63,131)   DRY( 63,132)   DRY( 63,133)   
    DRY( 63,134)   DRY( 63,135)   DRY( 63,136)   DRY( 63,137)   DRY( 63,138)   
    DRY( 63,139)   DRY( 63,140)   DRY( 63,141)   DRY( 63,142)   DRY( 63,143)   
    DRY( 63,144)   DRY( 63,145)   DRY( 63,146)   DRY( 63,147)   DRY( 63,148)   
    DRY( 63,149)   DRY( 63,150)   DRY( 63,151)   DRY( 63,152)   DRY( 63,153)   
    DRY( 63,154)   DRY( 63,155)   DRY( 63,156)   DRY( 63,157)   DRY( 63,158)   
    DRY( 63,159)   DRY( 63,160)   DRY( 63,161)   DRY( 63,162)   DRY( 63,163)   
    DRY( 63,164)   DRY( 63,165)   DRY( 63,166)   DRY( 63,167)   DRY( 63,168)   
    DRY( 63,169)   DRY( 63,170)   DRY( 63,171)   DRY( 63,172)   DRY( 63,173)   
    DRY( 63,174)   DRY( 63,175)   DRY( 63,176)   DRY( 63,177)   DRY( 63,178)   
    DRY( 63,179)   DRY( 63,180)   DRY( 63,181)   DRY( 63,182)   DRY( 63,183)   
    DRY( 63,184)   DRY( 63,185)   DRY( 63,186)   DRY( 63,187)   DRY( 63,188)   
    DRY( 63,189)   DRY( 63,190)   DRY( 64,  1)   DRY( 64,  2)   DRY( 64,  3)   
    DRY( 64,  4)   DRY( 64,  5)   DRY( 64,  6)   DRY( 64,  7)   DRY( 64,  8)   
    DRY( 64,  9)   DRY( 64, 10)   DRY( 64, 11)   DRY( 64, 12)   DRY( 64, 13)   
    DRY( 64, 14)   DRY( 64, 15)   DRY( 64, 16)   DRY( 64, 17)   DRY( 64, 18)   
    DRY( 64, 19)   DRY( 64, 20)   DRY( 64, 21)   DRY( 64, 22)   DRY( 64, 23)   
    DRY( 64, 24)   DRY( 64, 25)   DRY( 64, 26)   DRY( 64, 27)   DRY( 64, 28)   
    DRY( 64, 29)   DRY( 64, 30)   DRY( 64, 31)   DRY( 64, 32)   DRY( 64, 33)   
    DRY( 64, 34)   DRY( 64, 35)   DRY( 64, 36)   DRY( 64, 37)   DRY( 64, 38)   
    DRY( 64, 39)   DRY( 64, 40)   DRY( 64, 41)   DRY( 64, 42)   DRY( 64, 43)   
    DRY( 64, 44)   DRY( 64, 45)   DRY( 64, 46)   DRY( 64, 47)   DRY( 64, 48)   
    DRY( 64, 49)   DRY( 64, 50)   DRY( 64, 51)   DRY( 64, 52)   DRY( 64, 53)   
    DRY( 64, 54)   DRY( 64, 55)   DRY( 64, 56)   DRY( 64, 57)   DRY( 64, 58)   
    DRY( 64, 59)   DRY( 64, 60)   DRY( 64, 61)   DRY( 64, 62)   DRY( 64, 63)   
    DRY( 64, 64)   DRY( 64, 65)   DRY( 64, 66)   DRY( 64, 67)   DRY( 64, 68)   
    DRY( 64, 69)   DRY( 64, 70)   DRY( 64, 71)   DRY( 64, 72)   DRY( 64, 73)   
    DRY( 64, 74)   DRY( 64, 75)   DRY( 64, 76)   DRY( 64, 77)   DRY( 64, 78)   
    DRY( 64, 79)   DRY( 64, 80)   DRY( 64, 81)   DRY( 64, 82)   DRY( 64, 83)   
    DRY( 64, 84)   DRY( 64, 85)   DRY( 64, 86)   DRY( 64, 87)   DRY( 64, 88)   
    DRY( 64, 89)   DRY( 64, 90)   DRY( 64, 91)   DRY( 64, 92)   DRY( 64, 93)   
    DRY( 64, 94)   DRY( 64, 95)   DRY( 64, 96)   DRY( 64, 97)   DRY( 64, 98)   
    DRY( 64, 99)   DRY( 64,100)   DRY( 64,101)   DRY( 64,102)   DRY( 64,103)   
    DRY( 64,104)   DRY( 64,105)   DRY( 64,106)   DRY( 64,107)   DRY( 64,108)   
    DRY( 64,109)   DRY( 64,110)   DRY( 64,111)   DRY( 64,112)   DRY( 64,113)   
    DRY( 64,114)   DRY( 64,115)   DRY( 64,116)   DRY( 64,117)   DRY( 64,118)   
    DRY( 64,119)   DRY( 64,120)   DRY( 64,121)   DRY( 64,122)   DRY( 64,123)   
    DRY( 64,124)   DRY( 64,125)   DRY( 64,126)   DRY( 64,127)   DRY( 64,128)   
    DRY( 64,129)   DRY( 64,130)   DRY( 64,131)   DRY( 64,132)   DRY( 64,133)   
    DRY( 64,134)   DRY( 64,135)   DRY( 64,136)   DRY( 64,137)   DRY( 64,138)   
    DRY( 64,139)   DRY( 64,140)   DRY( 64,141)   DRY( 64,142)   DRY( 64,143)   
    DRY( 64,144)   DRY( 64,145)   DRY( 64,146)   DRY( 64,147)   DRY( 64,148)   
    DRY( 64,149)   DRY( 64,150)   DRY( 64,151)   DRY( 64,152)   DRY( 64,153)   
    DRY( 64,154)   DRY( 64,155)   DRY( 64,156)   DRY( 64,157)   DRY( 64,158)   
    DRY( 64,159)   DRY( 64,160)   DRY( 64,161)   DRY( 64,162)   DRY( 64,163)   
    DRY( 64,164)   DRY( 64,165)   DRY( 64,166)   DRY( 64,167)   DRY( 64,168)   
    DRY( 64,169)   DRY( 64,170)   DRY( 64,171)   DRY( 64,172)   DRY( 64,173)   
    DRY( 64,174)   DRY( 64,175)   DRY( 64,176)   DRY( 64,177)   DRY( 64,178)   
    DRY( 64,179)   DRY( 64,180)   DRY( 64,181)   DRY( 64,182)   DRY( 64,183)   
    DRY( 64,184)   DRY( 64,185)   DRY( 64,186)   DRY( 64,187)   DRY( 64,188)   
    DRY( 64,189)   DRY( 64,190)   DRY( 64,191)   DRY( 64,192)   DRY( 64,193)   
    DRY( 64,194)   DRY( 64,195)   DRY( 64,196)   DRY( 64,197)   DRY( 64,198)   
    DRY( 64,199)   DRY( 64,200)   DRY( 64,201)   DRY( 64,202)   DRY( 64,203)   
    DRY( 64,204)   DRY( 64,205)   DRY( 64,206)   DRY( 64,207)   DRY( 64,208)   
    DRY( 64,209)   DRY( 64,210)   DRY( 64,211)   DRY( 64,212)   DRY( 64,213)   
    DRY( 64,214)   DRY( 64,215)   DRY( 64,216)   DRY( 64,217)   DRY( 64,218)   
    DRY( 64,219)   DRY( 65,  1)   DRY( 65,  2)   DRY( 65,  3)   DRY( 65,  4)   
    DRY( 65,  5)   DRY( 65,  6)   DRY( 65,  7)   DRY( 65,  8)   DRY( 65,  9)   
    DRY( 65, 10)   DRY( 65, 11)   DRY( 65, 12)   DRY( 65, 13)   DRY( 65, 14)   
    DRY( 65, 15)   DRY( 65, 16)   DRY( 65, 17)   DRY( 65, 18)   DRY( 65, 19)   
    DRY( 65, 20)   DRY( 65, 21)   DRY( 65, 22)   DRY( 65, 23)   DRY( 65, 24)   
    DRY( 65, 25)   DRY( 65, 26)   DRY( 65, 27)   DRY( 65, 28)   DRY( 65, 29)   
    DRY( 65, 30)   DRY( 65, 31)   DRY( 65, 32)   DRY( 65, 33)   DRY( 65, 34)   
    DRY( 65, 35)   DRY( 65, 36)   DRY( 65, 37)   DRY( 65, 38)   DRY( 65, 39)   
    DRY( 65, 40)   DRY( 65, 41)   DRY( 65, 42)   DRY( 65, 43)   DRY( 65, 44)   
    DRY( 65, 45)   DRY( 65, 46)   DRY( 65, 47)   DRY( 65, 48)   DRY( 65, 49)   
    DRY( 65, 50)   DRY( 65, 51)   DRY( 65, 52)   DRY( 65, 53)   DRY( 65, 54)   
    DRY( 65, 55)   DRY( 65, 56)   DRY( 65, 57)   DRY( 65, 58)   DRY( 65, 59)   
    DRY( 65, 60)   DRY( 65, 61)   DRY( 65, 62)   DRY( 65, 63)   DRY( 65, 64)   
    DRY( 65, 65)   DRY( 65, 66)   DRY( 65, 67)   DRY( 65, 68)   DRY( 65, 69)   
    DRY( 65, 70)   DRY( 65, 71)   DRY( 65, 72)   DRY( 65, 73)   DRY( 65, 74)   
    DRY( 65, 75)   DRY( 65, 76)   DRY( 65, 77)   DRY( 65, 78)   DRY( 65, 79)   
    DRY( 65, 80)   DRY( 65, 81)   DRY( 65, 82)   DRY( 65, 83)   DRY( 65, 84)   
    DRY( 65, 85)   DRY( 65, 86)   DRY( 65, 87)   DRY( 65, 88)   DRY( 65, 89)   
    DRY( 65, 90)   DRY( 65, 91)   DRY( 65, 92)   DRY( 65, 93)   DRY( 65, 94)   
    DRY( 65, 95)   DRY( 65, 96)   DRY( 65, 97)   DRY( 65, 98)   DRY( 65, 99)   
    DRY( 65,100)   DRY( 65,101)   DRY( 65,102)   DRY( 65,103)   DRY( 65,104)   
    DRY( 65,105)   DRY( 65,106)   DRY( 65,107)   DRY( 65,108)   DRY( 65,109)   
    DRY( 65,110)   DRY( 65,111)   DRY( 65,112)   DRY( 65,113)   DRY( 65,114)   
    DRY( 65,115)   DRY( 65,116)   DRY( 65,117)   DRY( 65,118)   DRY( 65,119)   
    DRY( 65,120)   DRY( 65,121)   DRY( 65,122)   DRY( 65,123)   DRY( 65,124)   
    DRY( 65,125)   DRY( 65,126)   DRY( 65,127)   DRY( 65,128)   DRY( 65,129)   
    DRY( 65,130)   DRY( 65,131)   DRY( 65,132)   DRY( 65,133)   DRY( 65,134)   
    DRY( 65,135)   DRY( 65,136)   DRY( 65,137)   DRY( 65,138)   DRY( 65,139)   
    DRY( 65,140)   DRY( 65,141)   DRY( 65,142)   DRY( 65,143)   DRY( 65,144)   
    DRY( 65,145)   DRY( 65,146)   DRY( 65,147)   DRY( 65,148)   DRY( 65,149)   
    DRY( 65,150)   DRY( 65,151)   DRY( 65,152)   DRY( 65,153)   DRY( 65,154)   
    DRY( 65,155)   DRY( 65,156)   DRY( 65,157)   DRY( 65,158)   DRY( 65,159)   
    DRY( 65,160)   DRY( 65,161)   DRY( 65,162)   DRY( 65,163)   DRY( 65,164)   
    DRY( 65,165)   DRY( 65,166)   DRY( 65,167)   DRY( 65,168)   DRY( 65,169)   
    DRY( 65,170)   DRY( 65,171)   DRY( 65,172)   DRY( 65,173)   DRY( 65,174)   
    DRY( 65,175)   DRY( 65,176)   DRY( 65,177)   DRY( 65,178)   DRY( 65,179)   
    DRY( 65,180)   DRY( 65,181)   DRY( 65,182)   DRY( 65,183)   DRY( 65,184)   
    DRY( 65,185)   DRY( 65,186)   DRY( 65,187)   DRY( 65,188)   DRY( 65,189)   
    DRY( 65,190)   DRY( 65,191)   DRY( 65,192)   DRY( 65,193)   DRY( 65,194)   
    DRY( 65,195)   DRY( 65,196)   DRY( 65,197)   DRY( 65,198)   DRY( 65,199)   
    DRY( 65,200)   DRY( 65,201)   DRY( 65,202)   DRY( 65,203)   DRY( 65,204)   
    DRY( 65,205)   DRY( 65,206)   DRY( 65,207)   DRY( 65,208)   DRY( 65,209)   
    DRY( 65,210)   DRY( 65,211)   DRY( 65,212)   DRY( 65,213)   DRY( 65,214)   
    DRY( 65,215)   DRY( 65,216)   DRY( 65,217)   DRY( 65,218)   DRY( 65,219)   
    DRY( 65,220)   DRY( 66,  1)   DRY( 66,  2)   DRY( 66,  3)   DRY( 66,  4)   
    DRY( 66,  5)   DRY( 66,  6)   DRY( 66,  7)   DRY( 66,  8)   DRY( 66,  9)   
    DRY( 66, 10)   DRY( 66, 11)   DRY( 66, 12)   DRY( 66, 13)   DRY( 66, 14)   
    DRY( 66, 15)   DRY( 66, 16)   DRY( 66, 17)   DRY( 66, 18)   DRY( 66, 19)   
    DRY( 66, 20)   DRY( 66, 21)   DRY( 66, 22)   DRY( 66, 23)   DRY( 66, 24)   
    DRY( 66, 25)   DRY( 66, 26)   DRY( 66, 27)   DRY( 66, 28)   DRY( 66, 29)   
    DRY( 66, 30)   DRY( 66, 31)   DRY( 66, 32)   DRY( 66, 33)   DRY( 66, 34)   
    DRY( 66, 35)   DRY( 66, 36)   DRY( 66, 37)   DRY( 66, 38)   DRY( 66, 39)   
    DRY( 66, 40)   DRY( 66, 41)   DRY( 66, 42)   DRY( 66, 43)   DRY( 66, 44)   
    DRY( 66, 45)   DRY( 66, 46)   DRY( 66, 47)   DRY( 66, 48)   DRY( 66, 49)   
    DRY( 66, 50)   DRY( 66, 51)   DRY( 66, 52)   DRY( 66, 53)   DRY( 66, 54)   
    DRY( 66, 55)   DRY( 66, 56)   DRY( 66, 57)   DRY( 66, 58)   DRY( 66, 59)   
    DRY( 66, 60)   DRY( 66, 61)   DRY( 66, 62)   DRY( 66, 63)   DRY( 66, 64)   
    DRY( 66, 65)   DRY( 66, 66)   DRY( 66, 67)   DRY( 66, 68)   DRY( 66, 69)   
    DRY( 66, 70)   DRY( 66, 71)   DRY( 66, 72)   DRY( 66, 73)   DRY( 66, 74)   
    DRY( 66, 75)   DRY( 66, 76)   DRY( 66, 77)   DRY( 66, 78)   DRY( 66, 79)   
    DRY( 66, 80)   DRY( 66, 81)   DRY( 66, 82)   DRY( 66, 83)   DRY( 66, 84)   
    DRY( 66, 85)   DRY( 66, 86)   DRY( 66, 87)   DRY( 66, 88)   DRY( 66, 89)   
    DRY( 66, 90)   DRY( 66, 91)   DRY( 66, 92)   DRY( 66, 93)   DRY( 66, 94)   
    DRY( 66, 95)   DRY( 66, 96)   DRY( 66, 97)   DRY( 66, 98)   DRY( 66, 99)   
    DRY( 66,100)   DRY( 66,101)   DRY( 66,102)   DRY( 66,103)   DRY( 66,104)   
    DRY( 66,105)   DRY( 66,106)   DRY( 66,107)   DRY( 66,108)   DRY( 66,109)   
    DRY( 66,110)   DRY( 66,111)   DRY( 66,112)   DRY( 66,113)   DRY( 66,114)   
    DRY( 66,115)   DRY( 66,116)   DRY( 66,117)   DRY( 66,118)   DRY( 66,119)   
    DRY( 66,120)   DRY( 66,121)   DRY( 66,122)   DRY( 66,123)   DRY( 66,124)   
    DRY( 66,125)   DRY( 66,126)   DRY( 66,127)   DRY( 66,128)   DRY( 66,129)   
    DRY( 66,130)   DRY( 66,131)   DRY( 66,132)   DRY( 66,133)   DRY( 66,134)   
    DRY( 66,135)   DRY( 66,136)   DRY( 66,137)   DRY( 66,138)   DRY( 66,139)   
    DRY( 66,140)   DRY( 66,141)   DRY( 66,142)   DRY( 66,143)   DRY( 66,144)   
    DRY( 66,145)   DRY( 66,146)   DRY( 66,147)   DRY( 66,148)   DRY( 66,149)   
    DRY( 66,150)   DRY( 66,151)   DRY( 66,152)   DRY( 66,153)   DRY( 66,154)   
    DRY( 66,155)   DRY( 66,156)   DRY( 66,157)   DRY( 66,158)   DRY( 66,159)   
    DRY( 66,160)   DRY( 66,161)   DRY( 66,162)   DRY( 66,163)   DRY( 66,164)   
    DRY( 66,165)   DRY( 66,166)   DRY( 66,167)   DRY( 66,168)   DRY( 66,169)   
    DRY( 66,170)   DRY( 66,171)   DRY( 66,172)   DRY( 66,173)   DRY( 66,174)   
    DRY( 66,175)   DRY( 66,176)   DRY( 66,177)   DRY( 66,178)   DRY( 66,179)   
    DRY( 66,180)   DRY( 66,181)   DRY( 66,182)   DRY( 66,183)   DRY( 66,184)   
    DRY( 66,185)   DRY( 66,186)   DRY( 66,187)   DRY( 66,188)   DRY( 66,189)   
    DRY( 66,190)   DRY( 66,191)   DRY( 66,192)   DRY( 66,193)   DRY( 66,194)   
    DRY( 66,195)   DRY( 66,196)   DRY( 66,197)   DRY( 66,198)   DRY( 66,199)   
    DRY( 66,200)   DRY( 66,201)   DRY( 66,202)   DRY( 66,203)   DRY( 66,204)   
    DRY( 66,205)   DRY( 66,206)   DRY( 66,207)   DRY( 66,208)   DRY( 66,209)   
    DRY( 66,210)   DRY( 66,211)   DRY( 66,212)   DRY( 66,213)   DRY( 66,214)   
    DRY( 66,215)   DRY( 66,216)   DRY( 66,217)   DRY( 66,218)   DRY( 66,219)   
    DRY( 66,220)   DRY( 67,  1)   DRY( 67,  2)   DRY( 67,  3)   DRY( 67,  4)   
    DRY( 67,  5)   DRY( 67,  6)   DRY( 67,  7)   DRY( 67,  8)   DRY( 67,  9)   
    DRY( 67, 10)   DRY( 67, 11)   DRY( 67, 12)   DRY( 67, 13)   DRY( 67, 14)   
    DRY( 67, 15)   DRY( 67, 16)   DRY( 67, 17)   DRY( 67, 18)   DRY( 67, 19)   
    DRY( 67, 20)   DRY( 67, 21)   DRY( 67, 22)   DRY( 67, 23)   DRY( 67, 24)   
    DRY( 67, 25)   DRY( 67, 26)   DRY( 67, 27)   DRY( 67, 28)   DRY( 67, 29)   
    DRY( 67, 30)   DRY( 67, 31)   DRY( 67, 32)   DRY( 67, 33)   DRY( 67, 34)   
    DRY( 67, 35)   DRY( 67, 36)   DRY( 67, 37)   DRY( 67, 38)   DRY( 67, 39)   
    DRY( 67, 40)   DRY( 67, 41)   DRY( 67, 42)   DRY( 67, 43)   DRY( 67, 44)   
    DRY( 67, 45)   DRY( 67, 46)   DRY( 67, 47)   DRY( 67, 48)   DRY( 67, 49)   
    DRY( 67, 50)   DRY( 67, 51)   DRY( 67, 52)   DRY( 67, 53)   DRY( 67, 54)   
    DRY( 67, 55)   DRY( 67, 56)   DRY( 67, 57)   DRY( 67, 58)   DRY( 67, 59)   
    DRY( 67, 60)   DRY( 67, 61)   DRY( 67, 62)   DRY( 67, 63)   DRY( 67, 64)   
    DRY( 67, 65)   DRY( 67, 66)   DRY( 67, 67)   DRY( 67, 68)   DRY( 67, 69)   
    DRY( 67, 70)   DRY( 67, 71)   DRY( 67, 72)   DRY( 67, 73)   DRY( 67, 74)   
    DRY( 67, 75)   DRY( 67, 76)   DRY( 67, 77)   DRY( 67, 78)   DRY( 67, 79)   
    DRY( 67, 80)   DRY( 67, 81)   DRY( 67, 82)   DRY( 67, 83)   DRY( 67, 84)   
    DRY( 67, 85)   DRY( 67, 86)   DRY( 67, 87)   DRY( 67, 88)   DRY( 67, 89)   
    DRY( 67, 90)   DRY( 67, 91)   DRY( 67, 92)   DRY( 67, 93)   DRY( 67, 94)   
    DRY( 67, 95)   DRY( 67, 96)   DRY( 67, 97)   DRY( 67, 98)   DRY( 67, 99)   
    DRY( 67,100)   DRY( 67,101)   DRY( 67,102)   DRY( 67,103)   DRY( 67,104)   
    DRY( 67,105)   DRY( 67,106)   DRY( 67,107)   DRY( 67,108)   DRY( 67,109)   
    DRY( 67,110)   DRY( 67,111)   DRY( 67,112)   DRY( 67,113)   DRY( 67,114)   
    DRY( 67,115)   DRY( 67,116)   DRY( 67,117)   DRY( 67,118)   DRY( 67,119)   
    DRY( 67,120)   DRY( 67,121)   DRY( 67,122)   DRY( 67,123)   DRY( 67,124)   
    DRY( 67,125)   DRY( 67,126)   DRY( 67,127)   DRY( 67,128)   DRY( 67,129)   
    DRY( 67,130)   DRY( 67,131)   DRY( 67,132)   DRY( 67,133)   DRY( 67,134)   
    DRY( 67,135)   DRY( 67,136)   DRY( 67,137)   DRY( 67,138)   DRY( 67,139)   
    DRY( 67,140)   DRY( 67,141)   DRY( 67,142)   DRY( 67,143)   DRY( 67,144)   
    DRY( 67,145)   DRY( 67,146)   DRY( 67,147)   DRY( 67,148)   DRY( 67,149)   
    DRY( 67,150)   DRY( 67,151)   DRY( 67,152)   DRY( 67,153)   DRY( 67,154)   
    DRY( 67,155)   DRY( 67,156)   DRY( 67,157)   DRY( 67,158)   DRY( 67,159)   
    DRY( 67,160)   DRY( 67,161)   DRY( 67,162)   DRY( 67,163)   DRY( 67,164)   
    DRY( 67,165)   DRY( 67,166)   DRY( 67,167)   DRY( 67,168)   DRY( 67,169)   
    DRY( 67,170)   DRY( 67,171)   DRY( 67,172)   DRY( 67,173)   DRY( 67,174)   
    DRY( 67,175)   DRY( 67,176)   DRY( 67,177)   DRY( 67,178)   DRY( 67,179)   
    DRY( 67,180)   DRY( 67,181)   DRY( 67,182)   DRY( 67,183)   DRY( 67,184)   
    DRY( 67,185)   DRY( 67,186)   DRY( 67,187)   DRY( 67,188)   DRY( 67,189)   
    DRY( 67,190)   DRY( 67,191)   DRY( 67,192)   DRY( 67,193)   DRY( 67,194)   
    DRY( 67,195)   DRY( 67,196)   DRY( 67,197)   DRY( 67,198)   DRY( 67,199)   
    DRY( 67,200)   DRY( 67,201)   DRY( 67,202)   DRY( 67,203)   DRY( 67,204)   
    DRY( 67,205)   DRY( 67,206)   DRY( 67,207)   DRY( 67,208)   DRY( 67,209)   
    DRY( 67,210)   DRY( 67,211)   DRY( 67,212)   DRY( 67,213)   DRY( 67,214)   
    DRY( 67,215)   DRY( 67,216)   DRY( 67,217)   DRY( 67,218)   DRY( 67,219)   
    DRY( 67,220)   DRY( 68,  1)   DRY( 68,  2)   DRY( 68,  3)   DRY( 68,  4)   
    DRY( 68,  5)   DRY( 68,  6)   DRY( 68,  7)   DRY( 68,  8)   DRY( 68,  9)   
    DRY( 68, 10)   DRY( 68, 11)   DRY( 68, 12)   DRY( 68, 13)   DRY( 68, 14)   
    DRY( 68, 15)   DRY( 68, 16)   DRY( 68, 17)   DRY( 68, 18)   DRY( 68, 19)   
    DRY( 68, 20)   DRY( 68, 21)   DRY( 68, 22)   DRY( 68, 23)   DRY( 68, 24)   
    DRY( 68, 25)   DRY( 68, 26)   DRY( 68, 27)   DRY( 68, 28)   DRY( 68, 29)   
    DRY( 68, 30)   DRY( 68, 31)   DRY( 68, 32)   DRY( 68, 33)   DRY( 68, 34)   
    DRY( 68, 35)   DRY( 68, 36)   DRY( 68, 37)   DRY( 68, 38)   DRY( 68, 39)   
    DRY( 68, 40)   DRY( 68, 41)   DRY( 68, 42)   DRY( 68, 43)   DRY( 68, 44)   
    DRY( 68, 45)   DRY( 68, 46)   DRY( 68, 47)   DRY( 68, 48)   DRY( 68, 49)   
    DRY( 68, 50)   DRY( 68, 51)   DRY( 68, 52)   DRY( 68, 53)   DRY( 68, 54)   
    DRY( 68, 55)   DRY( 68, 56)   DRY( 68, 57)   DRY( 68, 58)   DRY( 68, 59)   
    DRY( 68, 60)   DRY( 68, 61)   DRY( 68, 62)   DRY( 68, 63)   DRY( 68, 64)   
    DRY( 68, 65)   DRY( 68, 66)   DRY( 68, 67)   DRY( 68, 68)   DRY( 68, 69)   
    DRY( 68, 70)   DRY( 68, 71)   DRY( 68, 72)   DRY( 68, 73)   DRY( 68, 74)   
    DRY( 68, 75)   DRY( 68, 76)   DRY( 68, 77)   DRY( 68, 78)   DRY( 68, 79)   
    DRY( 68, 80)   DRY( 68, 81)   DRY( 68, 82)   DRY( 68, 83)   DRY( 68, 84)   
    DRY( 68, 85)   DRY( 68, 86)   DRY( 68, 87)   DRY( 68, 88)   DRY( 68, 89)   
    DRY( 68, 90)   DRY( 68, 91)   DRY( 68, 92)   DRY( 68, 93)   DRY( 68, 94)   
    DRY( 68, 95)   DRY( 68, 96)   DRY( 68, 97)   DRY( 68, 98)   DRY( 68, 99)   
    DRY( 68,100)   DRY( 68,101)   DRY( 68,102)   DRY( 68,103)   DRY( 68,104)   
    DRY( 68,105)   DRY( 68,106)   DRY( 68,107)   DRY( 68,108)   DRY( 68,109)   
    DRY( 68,110)   DRY( 68,111)   DRY( 68,112)   DRY( 68,113)   DRY( 68,114)   
    DRY( 68,115)   DRY( 68,116)   DRY( 68,117)   DRY( 68,118)   DRY( 68,119)   
    DRY( 68,120)   DRY( 68,121)   DRY( 68,122)   DRY( 68,123)   DRY( 68,124)   
    DRY( 68,125)   DRY( 68,126)   DRY( 68,127)   DRY( 68,128)   DRY( 68,129)   
    DRY( 68,130)   DRY( 68,131)   DRY( 68,132)   DRY( 68,133)   DRY( 68,134)   
    DRY( 68,135)   DRY( 68,136)   DRY( 68,137)   DRY( 68,138)   DRY( 68,139)   
    DRY( 68,140)   DRY( 68,141)   DRY( 68,142)   DRY( 68,143)   DRY( 68,144)   
    DRY( 68,145)   DRY( 68,146)   DRY( 68,147)   DRY( 68,148)   DRY( 68,149)   
    DRY( 68,150)   DRY( 68,151)   DRY( 68,152)   DRY( 68,153)   DRY( 68,154)   
    DRY( 68,155)   DRY( 68,156)   DRY( 68,157)   DRY( 68,158)   DRY( 68,159)   
    DRY( 68,160)   DRY( 68,161)   DRY( 68,162)   DRY( 68,163)   DRY( 68,164)   
    DRY( 68,165)   DRY( 68,166)   DRY( 68,167)   DRY( 68,168)   DRY( 68,169)   
    DRY( 68,170)   DRY( 68,171)   DRY( 68,172)   DRY( 68,173)   DRY( 68,174)   
    DRY( 68,175)   DRY( 68,176)   DRY( 68,177)   DRY( 68,178)   DRY( 68,179)   
    DRY( 68,180)   DRY( 68,181)   DRY( 68,182)   DRY( 68,183)   DRY( 68,184)   
    DRY( 68,185)   DRY( 68,186)   DRY( 68,187)   DRY( 68,188)   DRY( 68,189)   
    DRY( 68,190)   DRY( 68,191)   DRY( 68,192)   DRY( 68,193)   DRY( 68,194)   
    DRY( 68,195)   DRY( 68,196)   DRY( 68,197)   DRY( 68,198)   DRY( 68,199)   
    DRY( 68,200)   DRY( 68,201)   DRY( 68,202)   DRY( 68,203)   DRY( 68,204)   
    DRY( 68,205)   DRY( 68,206)   DRY( 68,207)   DRY( 68,208)   DRY( 68,209)   
    DRY( 68,210)   DRY( 68,211)   DRY( 68,212)   DRY( 68,213)   DRY( 68,214)   
    DRY( 68,215)   DRY( 68,216)   DRY( 68,217)   DRY( 68,218)   DRY( 68,219)   
    DRY( 68,220)   DRY( 69,  1)   DRY( 69,  2)   DRY( 69,  3)   DRY( 69,  4)   
    DRY( 69,  5)   DRY( 69,  6)   DRY( 69,  7)   DRY( 69,  8)   DRY( 69,  9)   
    DRY( 69, 10)   DRY( 69, 11)   DRY( 69, 12)   DRY( 69, 13)   DRY( 69, 14)   
    DRY( 69, 15)   DRY( 69, 16)   DRY( 69, 17)   DRY( 69, 18)   DRY( 69, 19)   
    DRY( 69, 20)   DRY( 69, 21)   DRY( 69, 22)   DRY( 69, 23)   DRY( 69, 24)   
    DRY( 69, 25)   DRY( 69, 26)   DRY( 69, 27)   DRY( 69, 28)   DRY( 69, 29)   
    DRY( 69, 30)   DRY( 69, 31)   DRY( 69, 32)   DRY( 69, 33)   DRY( 69, 34)   
    DRY( 69, 35)   DRY( 69, 36)   DRY( 69, 37)   DRY( 69, 38)   DRY( 69, 39)   
    DRY( 69, 40)   DRY( 69, 41)   DRY( 69, 42)   DRY( 69, 43)   DRY( 69, 44)   
    DRY( 69, 45)   DRY( 69, 46)   DRY( 69, 47)   DRY( 69, 48)   DRY( 69, 49)   
    DRY( 69, 50)   DRY( 69, 51)   DRY( 69, 52)   DRY( 69, 53)   DRY( 69, 54)   
    DRY( 69, 55)   DRY( 69, 56)   DRY( 69, 57)   DRY( 69, 58)   DRY( 69, 59)   
    DRY( 69, 60)   DRY( 69, 61)   DRY( 69, 62)   DRY( 69, 63)   DRY( 69, 64)   
    DRY( 69, 65)   DRY( 69, 66)   DRY( 69, 67)   DRY( 69, 68)   DRY( 69, 69)   
    DRY( 69, 70)   DRY( 69, 71)   DRY( 69, 72)   DRY( 69, 73)   DRY( 69, 74)   
    DRY( 69, 75)   DRY( 69, 76)   DRY( 69, 77)   DRY( 69, 78)   DRY( 69, 79)   
    DRY( 69, 80)   DRY( 69, 81)   DRY( 69, 82)   DRY( 69, 83)   DRY( 69, 84)   
    DRY( 69, 85)   DRY( 69, 86)   DRY( 69, 87)   DRY( 69, 88)   DRY( 69, 89)   
    DRY( 69, 90)   DRY( 69, 91)   DRY( 69, 92)   DRY( 69, 93)   DRY( 69, 94)   
    DRY( 69, 95)   DRY( 69, 96)   DRY( 69, 97)   DRY( 69, 98)   DRY( 69, 99)   
    DRY( 69,100)   DRY( 69,101)   DRY( 69,102)   DRY( 69,103)   DRY( 69,104)   
    DRY( 69,105)   DRY( 69,106)   DRY( 69,107)   DRY( 69,108)   DRY( 69,109)   
    DRY( 69,110)   DRY( 69,111)   DRY( 69,112)   DRY( 69,113)   DRY( 69,114)   
    DRY( 69,115)   DRY( 69,116)   DRY( 69,117)   DRY( 69,118)   DRY( 69,119)   
    DRY( 69,120)   DRY( 69,121)   DRY( 69,122)   DRY( 69,123)   DRY( 69,124)   
    DRY( 69,125)   DRY( 69,126)   DRY( 69,127)   DRY( 69,128)   DRY( 69,129)   
    DRY( 69,130)   DRY( 69,131)   DRY( 69,132)   DRY( 69,133)   DRY( 69,134)   
    DRY( 69,135)   DRY( 69,136)   DRY( 69,137)   DRY( 69,138)   DRY( 69,139)   
    DRY( 69,140)   DRY( 69,141)   DRY( 69,142)   DRY( 69,143)   DRY( 69,144)   
    DRY( 69,145)   DRY( 69,146)   DRY( 69,147)   DRY( 69,148)   DRY( 69,149)   
    DRY( 69,150)   DRY( 69,151)   DRY( 69,152)   DRY( 69,153)   DRY( 69,154)   
    DRY( 69,155)   DRY( 69,156)   DRY( 69,157)   DRY( 69,158)   DRY( 69,159)   
    DRY( 69,160)   DRY( 69,161)   DRY( 69,162)   DRY( 69,163)   DRY( 69,164)   
    DRY( 69,165)   DRY( 69,166)   DRY( 69,167)   DRY( 69,168)   DRY( 69,169)   
    DRY( 69,170)   DRY( 69,171)   DRY( 69,172)   DRY( 69,173)   DRY( 69,174)   
    DRY( 69,175)   DRY( 69,176)   DRY( 69,177)   DRY( 69,178)   DRY( 69,179)   
    DRY( 69,180)   DRY( 69,181)   DRY( 69,182)   DRY( 69,183)   DRY( 69,184)   
    DRY( 69,185)   DRY( 69,186)   DRY( 69,187)   DRY( 69,188)   DRY( 69,189)   
    DRY( 69,190)   DRY( 69,191)   DRY( 69,192)   DRY( 69,193)   DRY( 69,194)   
    DRY( 69,195)   DRY( 69,196)   DRY( 69,197)   DRY( 69,198)   DRY( 69,199)   
    DRY( 69,200)   DRY( 69,201)   DRY( 69,202)   DRY( 69,203)   DRY( 69,204)   
    DRY( 69,205)   DRY( 69,206)   DRY( 69,207)   DRY( 69,208)   DRY( 69,209)   
    DRY( 69,210)   DRY( 69,211)   DRY( 69,212)   DRY( 69,213)   DRY( 69,214)   
    DRY( 69,215)   DRY( 69,216)   DRY( 69,217)   DRY( 69,218)   DRY( 69,219)   
    DRY( 69,220)   DRY( 70,  1)   DRY( 70,  2)   DRY( 70,  3)   DRY( 70,  4)   
    DRY( 70,  5)   DRY( 70,  6)   DRY( 70,  7)   DRY( 70,  8)   DRY( 70,  9)   
    DRY( 70, 10)   DRY( 70, 11)   DRY( 70, 12)   DRY( 70, 13)   DRY( 70, 14)   
    DRY( 70, 15)   DRY( 70, 16)   DRY( 70, 17)   DRY( 70, 18)   DRY( 70, 19)   
    DRY( 70, 20)   DRY( 70, 21)   DRY( 70, 22)   DRY( 70, 23)   DRY( 70, 24)   
    DRY( 70, 25)   DRY( 70, 26)   DRY( 70, 27)   DRY( 70, 28)   DRY( 70, 29)   
    DRY( 70, 30)   DRY( 70, 31)   DRY( 70, 32)   DRY( 70, 33)   DRY( 70, 34)   
    DRY( 70, 35)   DRY( 70, 36)   DRY( 70, 37)   DRY( 70, 38)   DRY( 70, 39)   
    DRY( 70, 40)   DRY( 70, 41)   DRY( 70, 42)   DRY( 70, 43)   DRY( 70, 44)   
    DRY( 70, 45)   DRY( 70, 46)   DRY( 70, 47)   DRY( 70, 48)   DRY( 70, 49)   
    DRY( 70, 50)   DRY( 70, 51)   DRY( 70, 52)   DRY( 70, 53)   DRY( 70, 54)   
    DRY( 70, 55)   DRY( 70, 56)   DRY( 70, 57)   DRY( 70, 58)   DRY( 70, 59)   
    DRY( 70, 60)   DRY( 70, 61)   DRY( 70, 62)   DRY( 70, 63)   DRY( 70, 64)   
    DRY( 70, 65)   DRY( 70, 66)   DRY( 70, 67)   DRY( 70, 68)   DRY( 70, 69)   
    DRY( 70, 70)   DRY( 70, 71)   DRY( 70, 72)   DRY( 70, 73)   DRY( 70, 74)   
    DRY( 70, 75)   DRY( 70, 76)   DRY( 70, 77)   DRY( 70, 78)   DRY( 70, 79)   
    DRY( 70, 80)   DRY( 70, 81)   DRY( 70, 82)   DRY( 70, 83)   DRY( 70, 84)   
    DRY( 70, 85)   DRY( 70, 86)   DRY( 70, 87)   DRY( 70, 88)   DRY( 70, 89)   
    DRY( 70, 90)   DRY( 70, 91)   DRY( 70, 92)   DRY( 70, 93)   DRY( 70, 94)   
    DRY( 70, 95)   DRY( 70, 96)   DRY( 70, 97)   DRY( 70, 98)   DRY( 70, 99)   
    DRY( 70,100)   DRY( 70,101)   DRY( 70,102)   DRY( 70,103)   DRY( 70,104)   
    DRY( 70,105)   DRY( 70,106)   DRY( 70,107)   DRY( 70,108)   DRY( 70,109)   
    DRY( 70,110)   DRY( 70,111)   DRY( 70,112)   DRY( 70,113)   DRY( 70,114)   
    DRY( 70,115)   DRY( 70,116)   DRY( 70,117)   DRY( 70,118)   DRY( 70,119)   
    DRY( 70,120)   DRY( 70,121)   DRY( 70,122)   DRY( 70,123)   DRY( 70,124)   
    DRY( 70,125)   DRY( 70,126)   DRY( 70,127)   DRY( 70,128)   DRY( 70,129)   
    DRY( 70,130)   DRY( 70,131)   DRY( 70,132)   DRY( 70,133)   DRY( 70,134)   
    DRY( 70,135)   DRY( 70,136)   DRY( 70,137)   DRY( 70,138)   DRY( 70,139)   
    DRY( 70,140)   DRY( 70,141)   DRY( 70,142)   DRY( 70,143)   DRY( 70,144)   
    DRY( 70,145)   DRY( 70,146)   DRY( 70,147)   DRY( 70,148)   DRY( 70,149)   
    DRY( 70,150)   DRY( 70,151)   DRY( 70,152)   DRY( 70,153)   DRY( 70,154)   
    DRY( 70,155)   DRY( 70,156)   DRY( 70,157)   DRY( 70,158)   DRY( 70,159)   
    DRY( 70,160)   DRY( 70,161)   DRY( 70,162)   DRY( 70,163)   DRY( 70,164)   
    DRY( 70,165)   DRY( 70,166)   DRY( 70,167)   DRY( 70,168)   DRY( 70,169)   
    DRY( 70,170)   DRY( 70,171)   DRY( 70,172)   DRY( 70,173)   DRY( 70,174)   
    DRY( 70,175)   DRY( 70,176)   DRY( 70,177)   DRY( 70,178)   DRY( 70,179)   
    DRY( 70,180)   DRY( 70,181)   DRY( 70,182)   DRY( 70,183)   DRY( 70,184)   
    DRY( 70,185)   DRY( 70,186)   DRY( 70,187)   DRY( 70,188)   DRY( 70,189)   
    DRY( 70,190)   DRY( 70,191)   DRY( 70,192)   DRY( 70,193)   DRY( 70,194)   
    DRY( 70,195)   DRY( 70,196)   DRY( 70,197)   DRY( 70,198)   DRY( 70,199)   
    DRY( 70,200)   DRY( 70,201)   DRY( 70,202)   DRY( 70,203)   DRY( 70,204)   
    DRY( 70,205)   DRY( 70,206)   DRY( 70,207)   DRY( 70,208)   DRY( 70,209)   
    DRY( 70,210)   DRY( 70,211)   DRY( 70,212)   DRY( 70,213)   DRY( 70,214)   
    DRY( 70,215)   DRY( 70,216)   DRY( 70,217)   DRY( 70,218)   DRY( 70,219)   
    DRY( 70,220)   DRY( 71,  1)   DRY( 71,  2)   DRY( 71,  3)   DRY( 71,  4)   
    DRY( 71,  5)   DRY( 71,  6)   DRY( 71,  7)   DRY( 71,  8)   DRY( 71,  9)   
    DRY( 71, 10)   DRY( 71, 11)   DRY( 71, 12)   DRY( 71, 13)   DRY( 71, 14)   
    DRY( 71, 15)   DRY( 71, 16)   DRY( 71, 17)   DRY( 71, 18)   DRY( 71, 19)   
    DRY( 71, 20)   DRY( 71, 21)   DRY( 71, 22)   DRY( 71, 23)   DRY( 71, 24)   
    DRY( 71, 25)   DRY( 71, 26)   DRY( 71, 27)   DRY( 71, 28)   DRY( 71, 29)   
    DRY( 71, 30)   DRY( 71, 31)   DRY( 71, 32)   DRY( 71, 33)   DRY( 71, 34)   
    DRY( 71, 35)   DRY( 71, 36)   DRY( 71, 37)   DRY( 71, 38)   DRY( 71, 39)   
    DRY( 71, 40)   DRY( 71, 41)   DRY( 71, 42)   DRY( 71, 43)   DRY( 71, 44)   
    DRY( 71, 45)   DRY( 71, 46)   DRY( 71, 47)   DRY( 71, 48)   DRY( 71, 49)   
    DRY( 71, 50)   DRY( 71, 51)   DRY( 71, 52)   DRY( 71, 53)   DRY( 71, 54)   
    DRY( 71, 55)   DRY( 71, 56)   DRY( 71, 57)   DRY( 71, 58)   DRY( 71, 59)   
    DRY( 71, 60)   DRY( 71, 61)   DRY( 71, 62)   DRY( 71, 63)   DRY( 71, 64)   
    DRY( 71, 65)   DRY( 71, 66)   DRY( 71, 67)   DRY( 71, 68)   DRY( 71, 69)   
    DRY( 71, 70)   DRY( 71, 71)   DRY( 71, 72)   DRY( 71, 73)   DRY( 71, 74)   
    DRY( 71, 75)   DRY( 71, 76)   DRY( 71, 77)   DRY( 71, 78)   DRY( 71, 79)   
    DRY( 71, 80)   DRY( 71, 81)   DRY( 71, 82)   DRY( 71, 83)   DRY( 71, 84)   
    DRY( 71, 85)   DRY( 71, 86)   DRY( 71, 87)   DRY( 71, 88)   DRY( 71, 89)   
    DRY( 71, 90)   DRY( 71, 91)   DRY( 71, 92)   DRY( 71, 93)   DRY( 71, 94)   
    DRY( 71, 95)   DRY( 71, 96)   DRY( 71, 97)   DRY( 71, 98)   DRY( 71, 99)   
    DRY( 71,100)   DRY( 71,101)   DRY( 71,102)   DRY( 71,103)   DRY( 71,104)   
    DRY( 71,105)   DRY( 71,106)   DRY( 71,107)   DRY( 71,108)   DRY( 71,109)   
    DRY( 71,110)   DRY( 71,111)   DRY( 71,112)   DRY( 71,113)   DRY( 71,114)   
    DRY( 71,115)   DRY( 71,116)   DRY( 71,117)   DRY( 71,118)   DRY( 71,119)   
    DRY( 71,120)   DRY( 71,121)   DRY( 71,122)   DRY( 71,123)   DRY( 71,124)   
    DRY( 71,125)   DRY( 71,126)   DRY( 71,127)   DRY( 71,128)   DRY( 71,129)   
    DRY( 71,130)   DRY( 71,131)   DRY( 71,132)   DRY( 71,133)   DRY( 71,134)   
    DRY( 71,135)   DRY( 71,136)   DRY( 71,137)   DRY( 71,138)   DRY( 71,139)   
    DRY( 71,140)   DRY( 71,141)   DRY( 71,142)   DRY( 71,143)   DRY( 71,144)   
    DRY( 71,145)   DRY( 71,146)   DRY( 71,147)   DRY( 71,148)   DRY( 71,149)   
    DRY( 71,150)   DRY( 71,151)   DRY( 71,152)   DRY( 71,153)   DRY( 71,154)   
    DRY( 71,155)   DRY( 71,156)   DRY( 71,157)   DRY( 71,158)   DRY( 71,159)   
    DRY( 71,160)   DRY( 71,161)   DRY( 71,162)   DRY( 71,163)   DRY( 71,164)   
    DRY( 71,165)   DRY( 71,166)   DRY( 71,167)   DRY( 71,168)   DRY( 71,169)   
    DRY( 71,170)   DRY( 71,171)   DRY( 71,172)   DRY( 71,173)   DRY( 71,174)   
    DRY( 71,175)   DRY( 71,176)   DRY( 71,177)   DRY( 71,178)   DRY( 71,179)   
    DRY( 71,180)   DRY( 71,181)   DRY( 71,182)   DRY( 71,183)   DRY( 71,184)   
    DRY( 71,185)   DRY( 71,186)   DRY( 71,187)   DRY( 71,188)   DRY( 71,189)   
    DRY( 71,190)   DRY( 71,191)   DRY( 71,192)   DRY( 71,193)   DRY( 71,194)   
    DRY( 71,195)   DRY( 71,196)   DRY( 71,197)   DRY( 71,198)   DRY( 71,199)   
    DRY( 71,200)   DRY( 71,201)   DRY( 71,202)   DRY( 71,203)   DRY( 71,204)   
    DRY( 71,205)   DRY( 71,206)   DRY( 71,207)   DRY( 71,208)   DRY( 71,209)   
    DRY( 71,210)   DRY( 71,211)   DRY( 71,212)   DRY( 71,213)   DRY( 71,214)   
    DRY( 71,215)   DRY( 71,216)   DRY( 71,217)   DRY( 71,218)   DRY( 71,219)   
    DRY( 71,220)   DRY( 72,  1)   DRY( 72,  2)   DRY( 72,  3)   DRY( 72,  4)   
    DRY( 72,  5)   DRY( 72,  6)   DRY( 72,  7)   DRY( 72,  8)   DRY( 72,  9)   
    DRY( 72, 10)   DRY( 72, 11)   DRY( 72, 12)   DRY( 72, 13)   DRY( 72, 14)   
    DRY( 72, 15)   DRY( 72, 16)   DRY( 72, 17)   DRY( 72, 18)   DRY( 72, 19)   
    DRY( 72, 20)   DRY( 72, 21)   DRY( 72, 22)   DRY( 72, 23)   DRY( 72, 24)   
    DRY( 72, 25)   DRY( 72, 26)   DRY( 72, 27)   DRY( 72, 28)   DRY( 72, 29)   
    DRY( 72, 30)   DRY( 72, 31)   DRY( 72, 32)   DRY( 72, 33)   DRY( 72, 34)   
    DRY( 72, 35)   DRY( 72, 36)   DRY( 72, 37)   DRY( 72, 38)   DRY( 72, 39)   
    DRY( 72, 40)   DRY( 72, 41)   DRY( 72, 42)   DRY( 72, 43)   DRY( 72, 44)   
    DRY( 72, 45)   DRY( 72, 46)   DRY( 72, 47)   DRY( 72, 48)   DRY( 72, 49)   
    DRY( 72, 50)   DRY( 72, 51)   DRY( 72, 52)   DRY( 72, 53)   DRY( 72, 54)   
    DRY( 72, 55)   DRY( 72, 56)   DRY( 72, 57)   DRY( 72, 58)   DRY( 72, 59)   
    DRY( 72, 60)   DRY( 72, 61)   DRY( 72, 62)   DRY( 72, 63)   DRY( 72, 64)   
    DRY( 72, 65)   DRY( 72, 66)   DRY( 72, 67)   DRY( 72, 68)   DRY( 72, 69)   
    DRY( 72, 70)   DRY( 72, 71)   DRY( 72, 72)   DRY( 72, 73)   DRY( 72, 74)   
    DRY( 72, 75)   DRY( 72, 76)   DRY( 72, 77)   DRY( 72, 78)   DRY( 72, 79)   
    DRY( 72, 80)   DRY( 72, 81)   DRY( 72, 82)   DRY( 72, 83)   DRY( 72, 84)   
    DRY( 72, 85)   DRY( 72, 86)   DRY( 72, 87)   DRY( 72, 88)   DRY( 72, 89)   
    DRY( 72, 90)   DRY( 72, 91)   DRY( 72, 92)   DRY( 72, 93)   DRY( 72, 94)   
    DRY( 72, 95)   DRY( 72, 96)   DRY( 72, 97)   DRY( 72, 98)   DRY( 72, 99)   
    DRY( 72,100)   DRY( 72,101)   DRY( 72,102)   DRY( 72,103)   DRY( 72,104)   
    DRY( 72,105)   DRY( 72,106)   DRY( 72,107)   DRY( 72,108)   DRY( 72,109)   
    DRY( 72,110)   DRY( 72,111)   DRY( 72,112)   DRY( 72,113)   DRY( 72,114)   
    DRY( 72,115)   DRY( 72,116)   DRY( 72,117)   DRY( 72,118)   DRY( 72,119)   
    DRY( 72,120)   DRY( 72,121)   DRY( 72,122)   DRY( 72,123)   DRY( 72,124)   
    DRY( 72,125)   DRY( 72,126)   DRY( 72,127)   DRY( 72,128)   DRY( 72,129)   
    DRY( 72,130)   DRY( 72,131)   DRY( 72,132)   DRY( 72,133)   DRY( 72,134)   
    DRY( 72,135)   DRY( 72,136)   DRY( 72,137)   DRY( 72,138)   DRY( 72,139)   
    DRY( 72,140)   DRY( 72,141)   DRY( 72,142)   DRY( 72,143)   DRY( 72,144)   
    DRY( 72,145)   DRY( 72,146)   DRY( 72,147)   DRY( 72,148)   DRY( 72,149)   
    DRY( 72,150)   DRY( 72,151)   DRY( 72,152)   DRY( 72,153)   DRY( 72,154)   
    DRY( 72,155)   DRY( 72,156)   DRY( 72,157)   DRY( 72,158)   DRY( 72,159)   
    DRY( 72,160)   DRY( 72,161)   DRY( 72,162)   DRY( 72,163)   DRY( 72,164)   
    DRY( 72,165)   DRY( 72,166)   DRY( 72,167)   DRY( 72,168)   DRY( 72,169)   
    DRY( 72,170)   DRY( 72,171)   DRY( 72,172)   DRY( 72,173)   DRY( 72,174)   
    DRY( 72,175)   DRY( 72,176)   DRY( 72,177)   DRY( 72,178)   DRY( 72,179)   
    DRY( 72,180)   DRY( 72,181)   DRY( 72,182)   DRY( 72,183)   DRY( 72,184)   
    DRY( 72,185)   DRY( 72,186)   DRY( 72,187)   DRY( 72,188)   DRY( 72,189)   
    DRY( 72,190)   DRY( 72,191)   DRY( 72,192)   DRY( 72,193)   DRY( 72,194)   
    DRY( 72,195)   DRY( 72,196)   DRY( 72,197)   DRY( 72,198)   DRY( 72,199)   
    DRY( 72,200)   DRY( 72,201)   DRY( 72,202)   DRY( 72,203)   DRY( 72,204)   
    DRY( 72,205)   DRY( 72,206)   DRY( 72,207)   DRY( 72,208)   DRY( 72,209)   
    DRY( 72,210)   DRY( 72,211)   DRY( 72,212)   DRY( 72,213)   DRY( 72,214)   
    DRY( 72,215)   DRY( 72,216)   DRY( 72,217)   DRY( 72,218)   DRY( 72,219)   
    DRY( 72,220)   DRY( 73,  1)   DRY( 73,  2)   DRY( 73,  3)   DRY( 73,  4)   
    DRY( 73,  5)   DRY( 73,  6)   DRY( 73,  7)   DRY( 73,  8)   DRY( 73,  9)   
    DRY( 73, 10)   DRY( 73, 11)   DRY( 73, 12)   DRY( 73, 13)   DRY( 73, 14)   
    DRY( 73, 15)   DRY( 73, 16)   DRY( 73, 17)   DRY( 73, 18)   DRY( 73, 19)   
    DRY( 73, 20)   DRY( 73, 21)   DRY( 73, 22)   DRY( 73, 23)   DRY( 73, 24)   
    DRY( 73, 25)   DRY( 73, 26)   DRY( 73, 27)   DRY( 73, 28)   DRY( 73, 29)   
    DRY( 73, 30)   DRY( 73, 31)   DRY( 73, 32)   DRY( 73, 33)   DRY( 73, 34)   
    DRY( 73, 35)   DRY( 73, 36)   DRY( 73, 37)   DRY( 73, 38)   DRY( 73, 39)   
    DRY( 73, 40)   DRY( 73, 41)   DRY( 73, 42)   DRY( 73, 43)   DRY( 73, 44)   
    DRY( 73, 45)   DRY( 73, 46)   DRY( 73, 47)   DRY( 73, 48)   DRY( 73, 49)   
    DRY( 73, 50)   DRY( 73, 51)   DRY( 73, 52)   DRY( 73, 53)   DRY( 73, 54)   
    DRY( 73, 55)   DRY( 73, 56)   DRY( 73, 57)   DRY( 73, 58)   DRY( 73, 59)   
    DRY( 73, 60)   DRY( 73, 61)   DRY( 73, 62)   DRY( 73, 63)   DRY( 73, 64)   
    DRY( 73, 65)   DRY( 73, 66)   DRY( 73, 67)   DRY( 73, 68)   DRY( 73, 69)   
    DRY( 73, 70)   DRY( 73, 71)   DRY( 73, 72)   DRY( 73, 73)   DRY( 73, 74)   
    DRY( 73, 75)   DRY( 73, 76)   DRY( 73, 77)   DRY( 73, 78)   DRY( 73, 79)   
    DRY( 73, 80)   DRY( 73, 81)   DRY( 73, 82)   DRY( 73, 83)   DRY( 73, 84)   
    DRY( 73, 85)   DRY( 73, 86)   DRY( 73, 87)   DRY( 73, 88)   DRY( 73, 89)   
    DRY( 73, 90)   DRY( 73, 91)   DRY( 73, 92)   DRY( 73, 93)   DRY( 73, 94)   
    DRY( 73, 95)   DRY( 73, 96)   DRY( 73, 97)   DRY( 73, 98)   DRY( 73, 99)   
    DRY( 73,100)   DRY( 73,101)   DRY( 73,102)   DRY( 73,103)   DRY( 73,104)   
    DRY( 73,105)   DRY( 73,106)   DRY( 73,107)   DRY( 73,108)   DRY( 73,109)   
    DRY( 73,110)   DRY( 73,111)   DRY( 73,112)   DRY( 73,113)   DRY( 73,114)   
    DRY( 73,115)   DRY( 73,116)   DRY( 73,117)   DRY( 73,118)   DRY( 73,119)   
    DRY( 73,120)   DRY( 73,121)   DRY( 73,122)   DRY( 73,123)   DRY( 73,124)   
    DRY( 73,125)   DRY( 73,126)   DRY( 73,127)   DRY( 73,128)   DRY( 73,129)   
    DRY( 73,130)   DRY( 73,131)   DRY( 73,132)   DRY( 73,133)   DRY( 73,134)   
    DRY( 73,135)   DRY( 73,136)   DRY( 73,137)   DRY( 73,138)   DRY( 73,139)   
    DRY( 73,140)   DRY( 73,141)   DRY( 73,142)   DRY( 73,143)   DRY( 73,144)   
    DRY( 73,145)   DRY( 73,146)   DRY( 73,147)   DRY( 73,148)   DRY( 73,149)   
    DRY( 73,150)   DRY( 73,151)   DRY( 73,152)   DRY( 73,153)   DRY( 73,154)   
    DRY( 73,155)   DRY( 73,156)   DRY( 73,157)   DRY( 73,158)   DRY( 73,159)   
    DRY( 73,160)   DRY( 73,161)   DRY( 73,162)   DRY( 73,163)   DRY( 73,164)   
    DRY( 73,165)   DRY( 73,166)   DRY( 73,167)   DRY( 73,168)   DRY( 73,169)   
    DRY( 73,170)   DRY( 73,171)   DRY( 73,172)   DRY( 73,173)   DRY( 73,174)   
    DRY( 73,175)   DRY( 73,176)   DRY( 73,177)   DRY( 73,178)   DRY( 73,179)   
    DRY( 73,180)   DRY( 73,181)   DRY( 73,182)   DRY( 73,183)   DRY( 73,184)   
    DRY( 73,185)   DRY( 73,186)   DRY( 73,187)   DRY( 73,188)   DRY( 73,189)   
    DRY( 73,190)   DRY( 73,191)   DRY( 73,192)   DRY( 73,193)   DRY( 73,194)   
    DRY( 73,195)   DRY( 73,196)   DRY( 73,197)   DRY( 73,198)   DRY( 73,199)   
    DRY( 73,200)   DRY( 73,201)   DRY( 73,202)   DRY( 73,203)   DRY( 73,204)   
    DRY( 73,205)   DRY( 73,206)   DRY( 73,207)   DRY( 73,208)   DRY( 73,209)   
    DRY( 73,210)   DRY( 73,211)   DRY( 73,212)   DRY( 73,213)   DRY( 73,214)   
    DRY( 73,215)   DRY( 73,216)   DRY( 73,217)   DRY( 73,218)   DRY( 73,219)   
    DRY( 73,220)   DRY( 74,  2)   DRY( 74,  3)   DRY( 74,  4)   DRY( 74,  5)   
    DRY( 74,  6)   DRY( 74,  7)   DRY( 74,  8)   DRY( 74,  9)   DRY( 74, 10)   
    DRY( 74, 11)   DRY( 74, 12)   DRY( 74, 13)   DRY( 74, 14)   DRY( 74, 15)   
    DRY( 74, 16)   DRY( 74, 17)   DRY( 74, 18)   DRY( 74, 19)   DRY( 74, 20)   
    DRY( 74, 21)   DRY( 74, 22)   DRY( 74, 23)   DRY( 74, 24)   DRY( 74, 25)   
    DRY( 74, 26)   DRY( 74, 27)   DRY( 74, 28)   DRY( 74, 29)   DRY( 74, 30)   
    DRY( 74, 31)   DRY( 74, 32)   DRY( 74, 33)   DRY( 74, 34)   DRY( 74, 35)   
    DRY( 74, 36)   DRY( 74, 37)   DRY( 74, 38)   DRY( 74, 39)   DRY( 74, 40)   
    DRY( 74, 41)   DRY( 74, 42)   DRY( 74, 43)   DRY( 74, 44)   DRY( 74, 45)   
    DRY( 74, 46)   DRY( 74, 47)   DRY( 74, 48)   DRY( 74, 49)   DRY( 74, 50)   
    DRY( 74, 51)   DRY( 74, 52)   DRY( 74, 53)   DRY( 74, 54)   DRY( 74, 55)   
    DRY( 74, 56)   DRY( 74, 57)   DRY( 74, 58)   DRY( 74, 59)   DRY( 74, 60)   
    DRY( 74, 61)   DRY( 74, 62)   DRY( 74, 63)   DRY( 74, 64)   DRY( 74, 65)   
    DRY( 74, 66)   DRY( 74, 67)   DRY( 74, 68)   DRY( 74, 69)   DRY( 74, 70)   
    DRY( 74, 71)   DRY( 74, 72)   DRY( 74, 73)   DRY( 74, 74)   DRY( 74, 75)   
    DRY( 74, 76)   DRY( 74, 77)   DRY( 74, 78)   DRY( 74, 79)   DRY( 74, 80)   
    DRY( 74, 81)   DRY( 74, 82)   DRY( 74, 83)   DRY( 74, 84)   DRY( 74, 85)   
    DRY( 74, 86)   DRY( 74, 87)   DRY( 74, 88)   DRY( 74, 89)   DRY( 74, 90)   
    DRY( 74, 91)   DRY( 74, 92)   DRY( 74, 93)   DRY( 74, 94)   DRY( 74, 95)   
    DRY( 74, 96)   DRY( 74, 97)   DRY( 74, 98)   DRY( 74, 99)   DRY( 74,100)   
    DRY( 74,101)   DRY( 74,102)   DRY( 74,103)   DRY( 74,104)   DRY( 74,105)   
    DRY( 74,106)   DRY( 74,107)   DRY( 74,108)   DRY( 74,109)   DRY( 74,110)   
    DRY( 74,111)   DRY( 74,112)   DRY( 74,113)   DRY( 74,114)   DRY( 74,115)   
    DRY( 74,116)   DRY( 74,117)   DRY( 74,118)   DRY( 74,119)   DRY( 74,120)   
    DRY( 74,121)   DRY( 74,122)   DRY( 74,123)   DRY( 74,124)   DRY( 74,125)   
    DRY( 74,126)   DRY( 74,127)   DRY( 74,128)   DRY( 74,129)   DRY( 74,130)   
    DRY( 74,131)   DRY( 74,132)   DRY( 74,133)   DRY( 74,134)   DRY( 74,135)   
    DRY( 74,136)   DRY( 74,137)   DRY( 74,138)   DRY( 74,139)   DRY( 74,140)   
    DRY( 74,141)   DRY( 74,142)   DRY( 74,143)   DRY( 74,144)   DRY( 74,145)   
    DRY( 74,146)   DRY( 74,147)   DRY( 74,148)   DRY( 74,149)   DRY( 74,150)   
    DRY( 74,151)   DRY( 74,152)   DRY( 74,153)   DRY( 74,154)   DRY( 74,155)   
    DRY( 74,156)   DRY( 74,157)   DRY( 74,158)   DRY( 74,159)   DRY( 74,160)   
    DRY( 74,161)   DRY( 74,162)   DRY( 74,163)   DRY( 74,164)   DRY( 74,165)   
    DRY( 74,166)   DRY( 74,167)   DRY( 74,168)   DRY( 74,169)   DRY( 74,170)   
    DRY( 74,171)   DRY( 74,172)   DRY( 74,173)   DRY( 74,174)   DRY( 74,175)   
    DRY( 74,176)   DRY( 74,177)   DRY( 74,178)   DRY( 74,179)   DRY( 74,180)   
    DRY( 74,181)   DRY( 74,182)   DRY( 74,183)   DRY( 74,184)   DRY( 74,185)   
    DRY( 74,186)   DRY( 74,187)   DRY( 74,188)   DRY( 74,189)   DRY( 74,190)   
    DRY( 74,191)   DRY( 74,192)   DRY( 74,193)   DRY( 74,194)   DRY( 74,195)   
    DRY( 74,196)   DRY( 74,197)   DRY( 74,198)   DRY( 74,199)   DRY( 74,200)   
    DRY( 74,201)   DRY( 74,202)   DRY( 74,203)   DRY( 74,204)   DRY( 74,205)   
    DRY( 74,206)   DRY( 74,207)   DRY( 74,208)   DRY( 74,209)   DRY( 74,210)   
    DRY( 74,211)   DRY( 74,212)   DRY( 74,213)   DRY( 74,214)   DRY( 74,215)   
    DRY( 74,216)   DRY( 74,217)   DRY( 74,218)   DRY( 74,219)   DRY( 74,220)   

 CELL CONVERSIONS FOR ITER.=  3  LAYER= 23  STEP=  1  PERIOD=   1   (ROW,COL)
    DRY( 66,  1)   DRY( 66,  2)   DRY( 66,  3)   DRY( 66,  4)   DRY( 66,  5)   
    DRY( 66,  6)   DRY( 66,  7)   DRY( 66,  8)   DRY( 66,  9)   DRY( 66, 10)   
    DRY( 66, 11)   DRY( 66, 12)   DRY( 66, 13)   DRY( 66, 14)   DRY( 66, 15)   
    DRY( 66, 16)   DRY( 66, 17)   DRY( 66, 18)   DRY( 66, 19)   DRY( 66, 20)   
    DRY( 66, 21)   DRY( 66, 22)   DRY( 66, 23)   DRY( 66, 24)   DRY( 66, 25)   
    DRY( 66, 26)   DRY( 66, 27)   DRY( 66, 28)   DRY( 66, 29)   DRY( 66, 30)   
    DRY( 66, 31)   DRY( 66, 32)   DRY( 66, 33)   DRY( 66, 34)   DRY( 66, 35)   
    DRY( 66, 36)   DRY( 66, 37)   DRY( 66, 38)   DRY( 66, 39)   DRY( 66, 40)   
    DRY( 66, 41)   DRY( 66, 42)   DRY( 66, 43)   DRY( 66, 44)   DRY( 66, 45)   
    DRY( 66, 46)   DRY( 66, 47)   DRY( 66, 48)   DRY( 66, 49)   DRY( 67,  1)   
    DRY( 67,  2)   DRY( 67,  3)   DRY( 67,  4)   DRY( 67,  5)   DRY( 67,  6)   
    DRY( 67,  7)   DRY( 67,  8)   DRY( 67,  9)   DRY( 67, 10)   DRY( 67, 11)   
    DRY( 67, 12)   DRY( 67, 13)   DRY( 67, 14)   DRY( 67, 15)   DRY( 67, 16)   
    DRY( 67, 17)   DRY( 67, 18)   DRY( 67, 19)   DRY( 67, 20)   DRY( 67, 21)   
    DRY( 67, 22)   DRY( 67, 23)   DRY( 67, 24)   DRY( 67, 25)   DRY( 67, 26)   
    DRY( 67, 27)   DRY( 67, 28)   DRY( 67, 29)   DRY( 67, 30)   DRY( 67, 31)   
    DRY( 67, 32)   DRY( 67, 33)   DRY( 67, 34)   DRY( 67, 35)   DRY( 67, 36)   
    DRY( 67, 37)   DRY( 67, 38)   DRY( 67, 39)   DRY( 67, 40)   DRY( 67, 41)   
    DRY( 67, 42)   DRY( 67, 43)   DRY( 67, 44)   DRY( 67, 45)   DRY( 67, 46)   
    DRY( 67, 47)   DRY( 67, 48)   DRY( 67, 49)   DRY( 67, 50)   DRY( 67, 51)   
    DRY( 67, 52)   DRY( 67, 53)   DRY( 67, 54)   DRY( 67, 55)   DRY( 67, 56)   
    DRY( 67, 57)   DRY( 67, 58)   DRY( 67, 59)   DRY( 67, 60)   DRY( 67, 61)   
    DRY( 67, 62)   DRY( 67, 63)   DRY( 67, 64)   DRY( 67, 65)   DRY( 67, 66)   
    DRY( 67, 67)   DRY( 67, 68)   DRY( 67, 69)   DRY( 67, 70)   DRY( 67, 71)   
    DRY( 67, 72)   DRY( 67, 73)   DRY( 67, 74)   DRY( 67, 75)   DRY( 67, 76)   
    DRY( 67, 77)   DRY( 67, 78)   DRY( 67, 79)   DRY( 67, 80)   DRY( 67, 81)   
    DRY( 67, 82)   DRY( 67, 83)   DRY( 67, 84)   DRY( 67, 85)   DRY( 67, 86)   
    DRY( 67, 87)   DRY( 67, 88)   DRY( 67, 89)   DRY( 67, 90)   DRY( 67, 91)   
    DRY( 67, 92)   DRY( 67, 93)   DRY( 67, 94)   DRY( 67, 95)   DRY( 67, 96)   
    DRY( 67, 97)   DRY( 67, 98)   DRY( 67, 99)   DRY( 67,100)   DRY( 67,101)   
    DRY( 67,102)   DRY( 67,103)   DRY( 67,104)   DRY( 67,105)   DRY( 67,106)   
    DRY( 67,107)   DRY( 67,108)   DRY( 67,109)   DRY( 67,110)   DRY( 67,111)   
    DRY( 67,112)   DRY( 67,113)   DRY( 67,114)   DRY( 67,115)   DRY( 67,116)   
    DRY( 67,117)   DRY( 67,118)   DRY( 67,119)   DRY( 67,120)   DRY( 67,121)   
    DRY( 67,122)   DRY( 67,123)   DRY( 67,124)   DRY( 68,  1)   DRY( 68,  2)   
    DRY( 68,  3)   DRY( 68,  4)   DRY( 68,  5)   DRY( 68,  6)   DRY( 68,  7)   
    DRY( 68,  8)   DRY( 68,  9)   DRY( 68, 10)   DRY( 68, 11)   DRY( 68, 12)   
    DRY( 68, 13)   DRY( 68, 14)   DRY( 68, 15)   DRY( 68, 16)   DRY( 68, 17)   
    DRY( 68, 18)   DRY( 68, 19)   DRY( 68, 20)   DRY( 68, 21)   DRY( 68, 22)   
    DRY( 68, 23)   DRY( 68, 24)   DRY( 68, 25)   DRY( 68, 26)   DRY( 68, 27)   
    DRY( 68, 28)   DRY( 68, 29)   DRY( 68, 30)   DRY( 68, 31)   DRY( 68, 32)   
    DRY( 68, 33)   DRY( 68, 34)   DRY( 68, 35)   DRY( 68, 36)   DRY( 68, 37)   
    DRY( 68, 38)   DRY( 68, 39)   DRY( 68, 40)   DRY( 68, 41)   DRY( 68, 42)   
    DRY( 68, 43)   DRY( 68, 44)   DRY( 68, 45)   DRY( 68, 46)   DRY( 68, 47)   
    DRY( 68, 48)   DRY( 68, 49)   DRY( 68, 50)   DRY( 68, 51)   DRY( 68, 52)   
    DRY( 68, 53)   DRY( 68, 54)   DRY( 68, 55)   DRY( 68, 56)   DRY( 68, 57)   
    DRY( 68, 58)   DRY( 68, 59)   DRY( 68, 60)   DRY( 68, 61)   DRY( 68, 62)   
    DRY( 68, 63)   DRY( 68, 64)   DRY( 68, 65)   DRY( 68, 66)   DRY( 68, 67)   
    DRY( 68, 68)   DRY( 68, 69)   DRY( 68, 70)   DRY( 68, 71)   DRY( 68, 72)   
    DRY( 68, 73)   DRY( 68, 74)   DRY( 68, 75)   DRY( 68, 76)   DRY( 68, 77)   
    DRY( 68, 78)   DRY( 68, 79)   DRY( 68, 80)   DRY( 68, 81)   DRY( 68, 82)   
    DRY( 68, 83)   DRY( 68, 84)   DRY( 68, 85)   DRY( 68, 86)   DRY( 68, 87)   
    DRY( 68, 88)   DRY( 68, 89)   DRY( 68, 90)   DRY( 68, 91)   DRY( 68, 92)   
    DRY( 68, 93)   DRY( 68, 94)   DRY( 68, 95)   DRY( 68, 96)   DRY( 68, 97)   
    DRY( 68, 98)   DRY( 68, 99)   DRY( 68,100)   DRY( 68,101)   DRY( 68,102)   
    DRY( 68,103)   DRY( 68,104)   DRY( 68,105)   DRY( 68,106)   DRY( 68,107)   
    DRY( 68,108)   DRY( 68,109)   DRY( 68,110)   DRY( 68,111)   DRY( 68,112)   
    DRY( 68,113)   DRY( 68,114)   DRY( 68,115)   DRY( 68,116)   DRY( 68,117)   
    DRY( 68,118)   DRY( 68,119)   DRY( 68,120)   DRY( 68,121)   DRY( 68,122)   
    DRY( 68,123)   DRY( 68,124)   DRY( 68,125)   DRY( 68,126)   DRY( 68,127)   
    DRY( 68,128)   DRY( 68,129)   DRY( 68,130)   DRY( 68,131)   DRY( 68,132)   
    DRY( 68,133)   DRY( 68,134)   DRY( 68,135)   DRY( 68,136)   DRY( 68,137)   
    DRY( 68,138)   DRY( 68,139)   DRY( 68,140)   DRY( 68,141)   DRY( 68,142)   
    DRY( 68,143)   DRY( 68,144)   DRY( 68,145)   DRY( 68,146)   DRY( 68,147)   
    DRY( 68,148)   DRY( 68,149)   DRY( 68,150)   DRY( 68,151)   DRY( 68,152)   
    DRY( 68,153)   DRY( 68,154)   DRY( 68,155)   DRY( 68,156)   DRY( 68,157)   
    DRY( 68,158)   DRY( 68,159)   DRY( 68,160)   DRY( 68,161)   DRY( 68,162)   
    DRY( 68,163)   DRY( 68,164)   DRY( 68,165)   DRY( 68,166)   DRY( 68,167)   
    DRY( 68,168)   DRY( 68,169)   DRY( 68,170)   DRY( 68,171)   DRY( 68,172)   
    DRY( 68,173)   DRY( 68,174)   DRY( 68,175)   DRY( 68,176)   DRY( 68,177)   
    DRY( 68,178)   DRY( 68,179)   DRY( 68,180)   DRY( 68,181)   DRY( 69,  1)   
    DRY( 69,  2)   DRY( 69,  3)   DRY( 69,  4)   DRY( 69,  5)   DRY( 69,  6)   
    DRY( 69,  7)   DRY( 69,  8)   DRY( 69,  9)   DRY( 69, 10)   DRY( 69, 11)   
    DRY( 69, 12)   DRY( 69, 13)   DRY( 69, 14)   DRY( 69, 15)   DRY( 69, 16)   
    DRY( 69, 17)   DRY( 69, 18)   DRY( 69, 19)   DRY( 69, 20)   DRY( 69, 21)   
    DRY( 69, 22)   DRY( 69, 23)   DRY( 69, 24)   DRY( 69, 25)   DRY( 69, 26)   
    DRY( 69, 27)   DRY( 69, 28)   DRY( 69, 29)   DRY( 69, 30)   DRY( 69, 31)   
    DRY( 69, 32)   DRY( 69, 33)   DRY( 69, 34)   DRY( 69, 35)   DRY( 69, 36)   
    DRY( 69, 37)   DRY( 69, 38)   DRY( 69, 39)   DRY( 69, 40)   DRY( 69, 41)   
    DRY( 69, 42)   DRY( 69, 43)   DRY( 69, 44)   DRY( 69, 45)   DRY( 69, 46)   
    DRY( 69, 47)   DRY( 69, 48)   DRY( 69, 49)   DRY( 69, 50)   DRY( 69, 51)   
    DRY( 69, 52)   DRY( 69, 53)   DRY( 69, 54)   DRY( 69, 55)   DRY( 69, 56)   
    DRY( 69, 57)   DRY( 69, 58)   DRY( 69, 59)   DRY( 69, 60)   DRY( 69, 61)   
    DRY( 69, 62)   DRY( 69, 63)   DRY( 69, 64)   DRY( 69, 65)   DRY( 69, 66)   
    DRY( 69, 67)   DRY( 69, 68)   DRY( 69, 69)   DRY( 69, 70)   DRY( 69, 71)   
    DRY( 69, 72)   DRY( 69, 73)   DRY( 69, 74)   DRY( 69, 75)   DRY( 69, 76)   
    DRY( 69, 77)   DRY( 69, 78)   DRY( 69, 79)   DRY( 69, 80)   DRY( 69, 81)   
    DRY( 69, 82)   DRY( 69, 83)   DRY( 69, 84)   DRY( 69, 85)   DRY( 69, 86)   
    DRY( 69, 87)   DRY( 69, 88)   DRY( 69, 89)   DRY( 69, 90)   DRY( 69, 91)   
    DRY( 69, 92)   DRY( 69, 93)   DRY( 69, 94)   DRY( 69, 95)   DRY( 69, 96)   
    DRY( 69, 97)   DRY( 69, 98)   DRY( 69, 99)   DRY( 69,100)   DRY( 69,101)   
    DRY( 69,102)   DRY( 69,103)   DRY( 69,104)   DRY( 69,105)   DRY( 69,106)   
    DRY( 69,107)   DRY( 69,108)   DRY( 69,109)   DRY( 69,110)   DRY( 69,111)   
    DRY( 69,112)   DRY( 69,113)   DRY( 69,114)   DRY( 69,115)   DRY( 69,116)   
    DRY( 69,117)   DRY( 69,118)   DRY( 69,119)   DRY( 69,120)   DRY( 69,121)   
    DRY( 69,122)   DRY( 69,123)   DRY( 69,124)   DRY( 69,125)   DRY( 69,126)   
    DRY( 69,127)   DRY( 69,128)   DRY( 69,129)   DRY( 69,130)   DRY( 69,131)   
    DRY( 69,132)   DRY( 69,133)   DRY( 69,134)   DRY( 69,135)   DRY( 69,136)   
    DRY( 69,137)   DRY( 69,138)   DRY( 69,139)   DRY( 69,140)   DRY( 69,141)   
    DRY( 69,142)   DRY( 69,143)   DRY( 69,144)   DRY( 69,145)   DRY( 69,146)   
    DRY( 69,147)   DRY( 69,148)   DRY( 69,149)   DRY( 69,150)   DRY( 69,151)   
    DRY( 69,152)   DRY( 69,153)   DRY( 69,154)   DRY( 69,155)   DRY( 69,156)   
    DRY( 69,157)   DRY( 69,158)   DRY( 69,159)   DRY( 69,160)   DRY( 69,161)   
    DRY( 69,162)   DRY( 69,163)   DRY( 69,164)   DRY( 69,165)   DRY( 69,166)   
    DRY( 69,167)   DRY( 69,168)   DRY( 69,169)   DRY( 69,170)   DRY( 69,171)   
    DRY( 69,172)   DRY( 69,173)   DRY( 69,174)   DRY( 69,175)   DRY( 69,176)   
    DRY( 69,177)   DRY( 69,178)   DRY( 69,179)   DRY( 69,180)   DRY( 69,181)   
    DRY( 69,182)   DRY( 69,183)   DRY( 69,184)   DRY( 69,185)   DRY( 69,186)   
    DRY( 69,187)   DRY( 69,188)   DRY( 69,189)   DRY( 69,190)   DRY( 69,191)   
    DRY( 69,192)   DRY( 69,193)   DRY( 69,194)   DRY( 69,195)   DRY( 69,196)   
    DRY( 69,197)   DRY( 69,198)   DRY( 69,199)   DRY( 69,200)   DRY( 69,201)   
    DRY( 69,202)   DRY( 69,203)   DRY( 69,204)   DRY( 69,205)   DRY( 69,206)   
    DRY( 69,207)   DRY( 69,208)   DRY( 69,209)   DRY( 69,210)   DRY( 69,211)   
    DRY( 69,212)   DRY( 69,213)   DRY( 69,214)   DRY( 69,215)   DRY( 69,216)   
    DRY( 69,217)   DRY( 69,218)   DRY( 69,219)   DRY( 69,220)   DRY( 70,  1)   
    DRY( 70,  2)   DRY( 70,  3)   DRY( 70,  4)   DRY( 70,  5)   DRY( 70,  6)   
    DRY( 70,  7)   DRY( 70,  8)   DRY( 70,  9)   DRY( 70, 10)   DRY( 70, 11)   
    DRY( 70, 12)   DRY( 70, 13)   DRY( 70, 14)   DRY( 70, 15)   DRY( 70, 16)   
    DRY( 70, 17)   DRY( 70, 18)   DRY( 70, 19)   DRY( 70, 20)   DRY( 70, 21)   
    DRY( 70, 22)   DRY( 70, 23)   DRY( 70, 24)   DRY( 70, 25)   DRY( 70, 26)   
    DRY( 70, 27)   DRY( 70, 28)   DRY( 70, 29)   DRY( 70, 30)   DRY( 70, 31)   
    DRY( 70, 32)   DRY( 70, 33)   DRY( 70, 34)   DRY( 70, 35)   DRY( 70, 36)   
    DRY( 70, 37)   DRY( 70, 38)   DRY( 70, 39)   DRY( 70, 40)   DRY( 70, 41)   
    DRY( 70, 42)   DRY( 70, 43)   DRY( 70, 44)   DRY( 70, 45)   DRY( 70, 46)   
    DRY( 70, 47)   DRY( 70, 48)   DRY( 70, 49)   DRY( 70, 50)   DRY( 70, 51)   
    DRY( 70, 52)   DRY( 70, 53)   DRY( 70, 54)   DRY( 70, 55)   DRY( 70, 56)   
    DRY( 70, 57)   DRY( 70, 58)   DRY( 70, 59)   DRY( 70, 60)   DRY( 70, 61)   
    DRY( 70, 62)   DRY( 70, 63)   DRY( 70, 64)   DRY( 70, 65)   DRY( 70, 66)   
    DRY( 70, 67)   DRY( 70, 68)   DRY( 70, 69)   DRY( 70, 70)   DRY( 70, 71)   
    DRY( 70, 72)   DRY( 70, 73)   DRY( 70, 74)   DRY( 70, 75)   DRY( 70, 76)   
    DRY( 70, 77)   DRY( 70, 78)   DRY( 70, 79)   DRY( 70, 80)   DRY( 70, 81)   
    DRY( 70, 82)   DRY( 70, 83)   DRY( 70, 84)   DRY( 70, 85)   DRY( 70, 86)   
    DRY( 70, 87)   DRY( 70, 88)   DRY( 70, 89)   DRY( 70, 90)   DRY( 70, 91)   
    DRY( 70, 92)   DRY( 70, 93)   DRY( 70, 94)   DRY( 70, 95)   DRY( 70, 96)   
    DRY( 70, 97)   DRY( 70, 98)   DRY( 70, 99)   DRY( 70,100)   DRY( 70,101)   
    DRY( 70,102)   DRY( 70,103)   DRY( 70,104)   DRY( 70,105)   DRY( 70,106)   
    DRY( 70,107)   DRY( 70,108)   DRY( 70,109)   DRY( 70,110)   DRY( 70,111)   
    DRY( 70,112)   DRY( 70,113)   DRY( 70,114)   DRY( 70,115)   DRY( 70,116)   
    DRY( 70,117)   DRY( 70,118)   DRY( 70,119)   DRY( 70,120)   DRY( 70,121)   
    DRY( 70,122)   DRY( 70,123)   DRY( 70,124)   DRY( 70,125)   DRY( 70,126)   
    DRY( 70,127)   DRY( 70,128)   DRY( 70,129)   DRY( 70,130)   DRY( 70,131)   
    DRY( 70,132)   DRY( 70,133)   DRY( 70,134)   DRY( 70,135)   DRY( 70,136)   
    DRY( 70,137)   DRY( 70,138)   DRY( 70,139)   DRY( 70,140)   DRY( 70,141)   
    DRY( 70,142)   DRY( 70,143)   DRY( 70,144)   DRY( 70,145)   DRY( 70,146)   
    DRY( 70,147)   DRY( 70,148)   DRY( 70,149)   DRY( 70,150)   DRY( 70,151)   
    DRY( 70,152)   DRY( 70,153)   DRY( 70,154)   DRY( 70,155)   DRY( 70,156)   
    DRY( 70,157)   DRY( 70,158)   DRY( 70,159)   DRY( 70,160)   DRY( 70,161)   
    DRY( 70,162)   DRY( 70,163)   DRY( 70,164)   DRY( 70,165)   DRY( 70,166)   
    DRY( 70,167)   DRY( 70,168)   DRY( 70,169)   DRY( 70,170)   DRY( 70,171)   
    DRY( 70,172)   DRY( 70,173)   DRY( 70,174)   DRY( 70,175)   DRY( 70,176)   
    DRY( 70,177)   DRY( 70,178)   DRY( 70,179)   DRY( 70,180)   DRY( 70,181)   
    DRY( 70,182)   DRY( 70,183)   DRY( 70,184)   DRY( 70,185)   DRY( 70,186)   
    DRY( 70,187)   DRY( 70,188)   DRY( 70,189)   DRY( 70,190)   DRY( 70,191)   
    DRY( 70,192)   DRY( 70,193)   DRY( 70,194)   DRY( 70,195)   DRY( 70,196)   
    DRY( 70,197)   DRY( 70,198)   DRY( 70,199)   DRY( 70,200)   DRY( 70,201)   
    DRY( 70,202)   DRY( 70,203)   DRY( 70,204)   DRY( 70,205)   DRY( 70,206)   
    DRY( 70,207)   DRY( 70,208)   DRY( 70,209)   DRY( 70,210)   DRY( 70,211)   
    DRY( 70,212)   DRY( 70,213)   DRY( 70,214)   DRY( 70,215)   DRY( 70,216)   
    DRY( 70,217)   DRY( 70,218)   DRY( 70,219)   DRY( 70,220)   DRY( 71,  1)   
    DRY( 71,  2)   DRY( 71,  3)   DRY( 71,  4)   DRY( 71,  5)   DRY( 71,  6)   
    DRY( 71,  7)   DRY( 71,  8)   DRY( 71,  9)   DRY( 71, 10)   DRY( 71, 11)   
    DRY( 71, 12)   DRY( 71, 13)   DRY( 71, 14)   DRY( 71, 15)   DRY( 71, 16)   
    DRY( 71, 17)   DRY( 71, 18)   DRY( 71, 19)   DRY( 71, 20)   DRY( 71, 21)   
    DRY( 71, 22)   DRY( 71, 23)   DRY( 71, 24)   DRY( 71, 25)   DRY( 71, 26)   
    DRY( 71, 27)   DRY( 71, 28)   DRY( 71, 29)   DRY( 71, 30)   DRY( 71, 31)   
    DRY( 71, 32)   DRY( 71, 33)   DRY( 71, 34)   DRY( 71, 35)   DRY( 71, 36)   
    DRY( 71, 37)   DRY( 71, 38)   DRY( 71, 39)   DRY( 71, 40)   DRY( 71, 41)   
    DRY( 71, 42)   DRY( 71, 43)   DRY( 71, 44)   DRY( 71, 45)   DRY( 71, 46)   
    DRY( 71, 47)   DRY( 71, 48)   DRY( 71, 49)   DRY( 71, 50)   DRY( 71, 51)   
    DRY( 71, 52)   DRY( 71, 53)   DRY( 71, 54)   DRY( 71, 55)   DRY( 71, 56)   
    DRY( 71, 57)   DRY( 71, 58)   DRY( 71, 59)   DRY( 71, 60)   DRY( 71, 61)   
    DRY( 71, 62)   DRY( 71, 63)   DRY( 71, 64)   DRY( 71, 65)   DRY( 71, 66)   
    DRY( 71, 67)   DRY( 71, 68)   DRY( 71, 69)   DRY( 71, 70)   DRY( 71, 71)   
    DRY( 71, 72)   DRY( 71, 73)   DRY( 71, 74)   DRY( 71, 75)   DRY( 71, 76)   
    DRY( 71, 77)   DRY( 71, 78)   DRY( 71, 79)   DRY( 71, 80)   DRY( 71, 81)   
    DRY( 71, 82)   DRY( 71, 83)   DRY( 71, 84)   DRY( 71, 85)   DRY( 71, 86)   
    DRY( 71, 87)   DRY( 71, 88)   DRY( 71, 89)   DRY( 71, 90)   DRY( 71, 91)   
    DRY( 71, 92)   DRY( 71, 93)   DRY( 71, 94)   DRY( 71, 95)   DRY( 71, 96)   
    DRY( 71, 97)   DRY( 71, 98)   DRY( 71, 99)   DRY( 71,100)   DRY( 71,101)   
    DRY( 71,102)   DRY( 71,103)   DRY( 71,104)   DRY( 71,105)   DRY( 71,106)   
    DRY( 71,107)   DRY( 71,108)   DRY( 71,109)   DRY( 71,110)   DRY( 71,111)   
    DRY( 71,112)   DRY( 71,113)   DRY( 71,114)   DRY( 71,115)   DRY( 71,116)   
    DRY( 71,117)   DRY( 71,118)   DRY( 71,119)   DRY( 71,120)   DRY( 71,121)   
    DRY( 71,122)   DRY( 71,123)   DRY( 71,124)   DRY( 71,125)   DRY( 71,126)   
    DRY( 71,127)   DRY( 71,128)   DRY( 71,129)   DRY( 71,130)   DRY( 71,131)   
    DRY( 71,132)   DRY( 71,133)   DRY( 71,134)   DRY( 71,135)   DRY( 71,136)   
    DRY( 71,137)   DRY( 71,138)   DRY( 71,139)   DRY( 71,140)   DRY( 71,141)   
    DRY( 71,142)   DRY( 71,143)   DRY( 71,144)   DRY( 71,145)   DRY( 71,146)   
    DRY( 71,147)   DRY( 71,148)   DRY( 71,149)   DRY( 71,150)   DRY( 71,151)   
    DRY( 71,152)   DRY( 71,153)   DRY( 71,154)   DRY( 71,155)   DRY( 71,156)   
    DRY( 71,157)   DRY( 71,158)   DRY( 71,159)   DRY( 71,160)   DRY( 71,161)   
    DRY( 71,162)   DRY( 71,163)   DRY( 71,164)   DRY( 71,165)   DRY( 71,166)   
    DRY( 71,167)   DRY( 71,168)   DRY( 71,169)   DRY( 71,170)   DRY( 71,171)   
    DRY( 71,172)   DRY( 71,173)   DRY( 71,174)   DRY( 71,175)   DRY( 71,176)   
    DRY( 71,177)   DRY( 71,178)   DRY( 71,179)   DRY( 71,180)   DRY( 71,181)   
    DRY( 71,182)   DRY( 71,183)   DRY( 71,184)   DRY( 71,185)   DRY( 71,186)   
    DRY( 71,187)   DRY( 71,188)   DRY( 71,189)   DRY( 71,190)   DRY( 71,191)   
    DRY( 71,192)   DRY( 71,193)   DRY( 71,194)   DRY( 71,195)   DRY( 71,196)   
    DRY( 71,197)   DRY( 71,198)   DRY( 71,199)   DRY( 71,200)   DRY( 71,201)   
    DRY( 71,202)   DRY( 71,203)   DRY( 71,204)   DRY( 71,205)   DRY( 71,206)   
    DRY( 71,207)   DRY( 71,208)   DRY( 71,209)   DRY( 71,210)   DRY( 71,211)   
    DRY( 71,212)   DRY( 71,213)   DRY( 71,214)   DRY( 71,215)   DRY( 71,216)   
    DRY( 71,217)   DRY( 71,218)   DRY( 71,219)   DRY( 71,220)   DRY( 72,  1)   
    DRY( 72,  2)   DRY( 72,  3)   DRY( 72,  4)   DRY( 72,  5)   DRY( 72,  6)   
    DRY( 72,  7)   DRY( 72,  8)   DRY( 72,  9)   DRY( 72, 10)   DRY( 72, 11)   
    DRY( 72, 12)   DRY( 72, 13)   DRY( 72, 14)   DRY( 72, 15)   DRY( 72, 16)   
    DRY( 72, 17)   DRY( 72, 18)   DRY( 72, 19)   DRY( 72, 20)   DRY( 72, 21)   
    DRY( 72, 22)   DRY( 72, 23)   DRY( 72, 24)   DRY( 72, 25)   DRY( 72, 26)   
    DRY( 72, 27)   DRY( 72, 28)   DRY( 72, 29)   DRY( 72, 30)   DRY( 72, 31)   
    DRY( 72, 32)   DRY( 72, 33)   DRY( 72, 34)   DRY( 72, 35)   DRY( 72, 36)   
    DRY( 72, 37)   DRY( 72, 38)   DRY( 72, 39)   DRY( 72, 40)   DRY( 72, 41)   
    DRY( 72, 42)   DRY( 72, 43)   DRY( 72, 44)   DRY( 72, 45)   DRY( 72, 46)   
    DRY( 72, 47)   DRY( 72, 48)   DRY( 72, 49)   DRY( 72, 50)   DRY( 72, 51)   
    DRY( 72, 52)   DRY( 72, 53)   DRY( 72, 54)   DRY( 72, 55)   DRY( 72, 56)   
    DRY( 72, 57)   DRY( 72, 58)   DRY( 72, 59)   DRY( 72, 60)   DRY( 72, 61)   
    DRY( 72, 62)   DRY( 72, 63)   DRY( 72, 64)   DRY( 72, 65)   DRY( 72, 66)   
    DRY( 72, 67)   DRY( 72, 68)   DRY( 72, 69)   DRY( 72, 70)   DRY( 72, 71)   
    DRY( 72, 72)   DRY( 72, 73)   DRY( 72, 74)   DRY( 72, 75)   DRY( 72, 76)   
    DRY( 72, 77)   DRY( 72, 78)   DRY( 72, 79)   DRY( 72, 80)   DRY( 72, 81)   
    DRY( 72, 82)   DRY( 72, 83)   DRY( 72, 84)   DRY( 72, 85)   DRY( 72, 86)   
    DRY( 72, 87)   DRY( 72, 88)   DRY( 72, 89)   DRY( 72, 90)   DRY( 72, 91)   
    DRY( 72, 92)   DRY( 72, 93)   DRY( 72, 94)   DRY( 72, 95)   DRY( 72, 96)   
    DRY( 72, 97)   DRY( 72, 98)   DRY( 72, 99)   DRY( 72,100)   DRY( 72,101)   
    DRY( 72,102)   DRY( 72,103)   DRY( 72,104)   DRY( 72,105)   DRY( 72,106)   
    DRY( 72,107)   DRY( 72,108)   DRY( 72,109)   DRY( 72,110)   DRY( 72,111)   
    DRY( 72,112)   DRY( 72,113)   DRY( 72,114)   DRY( 72,115)   DRY( 72,116)   
    DRY( 72,117)   DRY( 72,118)   DRY( 72,119)   DRY( 72,120)   DRY( 72,121)   
    DRY( 72,122)   DRY( 72,123)   DRY( 72,124)   DRY( 72,125)   DRY( 72,126)   
    DRY( 72,127)   DRY( 72,128)   DRY( 72,129)   DRY( 72,130)   DRY( 72,131)   
    DRY( 72,132)   DRY( 72,133)   DRY( 72,134)   DRY( 72,135)   DRY( 72,136)   
    DRY( 72,137)   DRY( 72,138)   DRY( 72,139)   DRY( 72,140)   DRY( 72,141)   
    DRY( 72,142)   DRY( 72,143)   DRY( 72,144)   DRY( 72,145)   DRY( 72,146)   
    DRY( 72,147)   DRY( 72,148)   DRY( 72,149)   DRY( 72,150)   DRY( 72,151)   
    DRY( 72,152)   DRY( 72,153)   DRY( 72,154)   DRY( 72,155)   DRY( 72,156)   
    DRY( 72,157)   DRY( 72,158)   DRY( 72,159)   DRY( 72,160)   DRY( 72,161)   
    DRY( 72,162)   DRY( 72,163)   DRY( 72,164)   DRY( 72,165)   DRY( 72,166)   
    DRY( 72,167)   DRY( 72,168)   DRY( 72,169)   DRY( 72,170)   DRY( 72,171)   
    DRY( 72,172)   DRY( 72,173)   DRY( 72,174)   DRY( 72,175)   DRY( 72,176)   
    DRY( 72,177)   DRY( 72,178)   DRY( 72,179)   DRY( 72,180)   DRY( 72,181)   
    DRY( 72,182)   DRY( 72,183)   DRY( 72,184)   DRY( 72,185)   DRY( 72,186)   
    DRY( 72,187)   DRY( 72,188)   DRY( 72,189)   DRY( 72,190)   DRY( 72,191)   
    DRY( 72,192)   DRY( 72,193)   DRY( 72,194)   DRY( 72,195)   DRY( 72,196)   
    DRY( 72,197)   DRY( 72,198)   DRY( 72,199)   DRY( 72,200)   DRY( 72,201)   
    DRY( 72,202)   DRY( 72,203)   DRY( 72,204)   DRY( 72,205)   DRY( 72,206)   
    DRY( 72,207)   DRY( 72,208)   DRY( 72,209)   DRY( 72,210)   DRY( 72,211)   
    DRY( 72,212)   DRY( 72,213)   DRY( 72,214)   DRY( 72,215)   DRY( 72,216)   
    DRY( 72,217)   DRY( 72,218)   DRY( 72,219)   DRY( 72,220)   DRY( 73,  1)   
    DRY( 73,  2)   DRY( 73,  3)   DRY( 73,  4)   DRY( 73,  5)   DRY( 73,  6)   
    DRY( 73,  7)   DRY( 73,  8)   DRY( 73,  9)   DRY( 73, 10)   DRY( 73, 11)   
    DRY( 73, 12)   DRY( 73, 13)   DRY( 73, 14)   DRY( 73, 15)   DRY( 73, 16)   
    DRY( 73, 17)   DRY( 73, 18)   DRY( 73, 19)   DRY( 73, 20)   DRY( 73, 21)   
    DRY( 73, 22)   DRY( 73, 23)   DRY( 73, 24)   DRY( 73, 25)   DRY( 73, 26)   
    DRY( 73, 27)   DRY( 73, 28)   DRY( 73, 29)   DRY( 73, 30)   DRY( 73, 31)   
    DRY( 73, 32)   DRY( 73, 33)   DRY( 73, 34)   DRY( 73, 35)   DRY( 73, 36)   
    DRY( 73, 37)   DRY( 73, 38)   DRY( 73, 39)   DRY( 73, 40)   DRY( 73, 41)   
    DRY( 73, 42)   DRY( 73, 43)   DRY( 73, 44)   DRY( 73, 45)   DRY( 73, 46)   
    DRY( 73, 47)   DRY( 73, 48)   DRY( 73, 49)   DRY( 73, 50)   DRY( 73, 51)   
    DRY( 73, 52)   DRY( 73, 53)   DRY( 73, 54)   DRY( 73, 55)   DRY( 73, 56)   
    DRY( 73, 57)   DRY( 73, 58)   DRY( 73, 59)   DRY( 73, 60)   DRY( 73, 61)   
    DRY( 73, 62)   DRY( 73, 63)   DRY( 73, 64)   DRY( 73, 65)   DRY( 73, 66)   
    DRY( 73, 67)   DRY( 73, 68)   DRY( 73, 69)   DRY( 73, 70)   DRY( 73, 71)   
    DRY( 73, 72)   DRY( 73, 73)   DRY( 73, 74)   DRY( 73, 75)   DRY( 73, 76)   
    DRY( 73, 77)   DRY( 73, 78)   DRY( 73, 79)   DRY( 73, 80)   DRY( 73, 81)   
    DRY( 73, 82)   DRY( 73, 83)   DRY( 73, 84)   DRY( 73, 85)   DRY( 73, 86)   
    DRY( 73, 87)   DRY( 73, 88)   DRY( 73, 89)   DRY( 73, 90)   DRY( 73, 91)   
    DRY( 73, 92)   DRY( 73, 93)   DRY( 73, 94)   DRY( 73, 95)   DRY( 73, 96)   
    DRY( 73, 97)   DRY( 73, 98)   DRY( 73, 99)   DRY( 73,100)   DRY( 73,101)   
    DRY( 73,102)   DRY( 73,103)   DRY( 73,104)   DRY( 73,105)   DRY( 73,106)   
    DRY( 73,107)   DRY( 73,108)   DRY( 73,109)   DRY( 73,110)   DRY( 73,111)   
    DRY( 73,112)   DRY( 73,113)   DRY( 73,114)   DRY( 73,115)   DRY( 73,116)   
    DRY( 73,117)   DRY( 73,118)   DRY( 73,119)   DRY( 73,120)   DRY( 73,121)   
    DRY( 73,122)   DRY( 73,123)   DRY( 73,124)   DRY( 73,125)   DRY( 73,126)   
    DRY( 73,127)   DRY( 73,128)   DRY( 73,129)   DRY( 73,130)   DRY( 73,131)   
    DRY( 73,132)   DRY( 73,133)   DRY( 73,134)   DRY( 73,135)   DRY( 73,136)   
    DRY( 73,137)   DRY( 73,138)   DRY( 73,139)   DRY( 73,140)   DRY( 73,141)   
    DRY( 73,142)   DRY( 73,143)   DRY( 73,144)   DRY( 73,145)   DRY( 73,146)   
    DRY( 73,147)   DRY( 73,148)   DRY( 73,149)   DRY( 73,150)   DRY( 73,151)   
    DRY( 73,152)   DRY( 73,153)   DRY( 73,154)   DRY( 73,155)   DRY( 73,156)   
    DRY( 73,157)   DRY( 73,158)   DRY( 73,159)   DRY( 73,160)   DRY( 73,161)   
    DRY( 73,162)   DRY( 73,163)   DRY( 73,164)   DRY( 73,165)   DRY( 73,166)   
    DRY( 73,167)   DRY( 73,168)   DRY( 73,169)   DRY( 73,170)   DRY( 73,171)   
    DRY( 73,172)   DRY( 73,173)   DRY( 73,174)   DRY( 73,175)   DRY( 73,176)   
    DRY( 73,177)   DRY( 73,178)   DRY( 73,179)   DRY( 73,180)   DRY( 73,181)   
    DRY( 73,182)   DRY( 73,183)   DRY( 73,184)   DRY( 73,185)   DRY( 73,186)   
    DRY( 73,187)   DRY( 73,188)   DRY( 73,189)   DRY( 73,190)   DRY( 73,191)   
    DRY( 73,192)   DRY( 73,193)   DRY( 73,194)   DRY( 73,195)   DRY( 73,196)   
    DRY( 73,197)   DRY( 73,198)   DRY( 73,199)   DRY( 73,200)   DRY( 73,201)   
    DRY( 73,202)   DRY( 73,203)   DRY( 73,204)   DRY( 73,205)   DRY( 73,206)   
    DRY( 73,207)   DRY( 73,208)   DRY( 73,209)   DRY( 73,210)   DRY( 73,211)   
    DRY( 73,212)   DRY( 73,213)   DRY( 73,214)   DRY( 73,215)   DRY( 73,216)   
    DRY( 73,217)   DRY( 73,218)   DRY( 73,219)   DRY( 73,220)   DRY( 74,  1)   
    DRY( 74,  2)   DRY( 74,  3)   DRY( 74,  4)   DRY( 74,  5)   DRY( 74,  6)   
    DRY( 74,  7)   DRY( 74,  8)   DRY( 74,  9)   DRY( 74, 10)   DRY( 74, 11)   
    DRY( 74, 12)   DRY( 74, 13)   DRY( 74, 14)   DRY( 74, 15)   DRY( 74, 16)   
    DRY( 74, 17)   DRY( 74, 18)   DRY( 74, 19)   DRY( 74, 20)   DRY( 74, 21)   
    DRY( 74, 22)   DRY( 74, 23)   DRY( 74, 24)   DRY( 74, 25)   DRY( 74, 26)   
    DRY( 74, 27)   DRY( 74, 28)   DRY( 74, 29)   DRY( 74, 30)   DRY( 74, 31)   
    DRY( 74, 32)   DRY( 74, 33)   DRY( 74, 34)   DRY( 74, 35)   DRY( 74, 36)   
    DRY( 74, 37)   DRY( 74, 38)   DRY( 74, 39)   DRY( 74, 40)   DRY( 74, 41)   
    DRY( 74, 42)   DRY( 74, 43)   DRY( 74, 44)   DRY( 74, 45)   DRY( 74, 46)   
    DRY( 74, 47)   DRY( 74, 48)   DRY( 74, 49)   DRY( 74, 50)   DRY( 74, 51)   
    DRY( 74, 52)   DRY( 74, 53)   DRY( 74, 54)   DRY( 74, 55)   DRY( 74, 56)   
    DRY( 74, 57)   DRY( 74, 58)   DRY( 74, 59)   DRY( 74, 60)   DRY( 74, 61)   
    DRY( 74, 62)   DRY( 74, 63)   DRY( 74, 64)   DRY( 74, 65)   DRY( 74, 66)   
    DRY( 74, 67)   DRY( 74, 68)   DRY( 74, 69)   DRY( 74, 70)   DRY( 74, 71)   
    DRY( 74, 72)   DRY( 74, 73)   DRY( 74, 74)   DRY( 74, 75)   DRY( 74, 76)   
    DRY( 74, 77)   DRY( 74, 78)   DRY( 74, 79)   DRY( 74, 80)   DRY( 74, 81)   
    DRY( 74, 82)   DRY( 74, 83)   DRY( 74, 84)   DRY( 74, 85)   DRY( 74, 86)   
    DRY( 74, 87)   DRY( 74, 88)   DRY( 74, 89)   DRY( 74, 90)   DRY( 74, 91)   
    DRY( 74, 92)   DRY( 74, 93)   DRY( 74, 94)   DRY( 74, 95)   DRY( 74, 96)   
    DRY( 74, 97)   DRY( 74, 98)   DRY( 74, 99)   DRY( 74,100)   DRY( 74,101)   
    DRY( 74,102)   DRY( 74,103)   DRY( 74,104)   DRY( 74,105)   DRY( 74,106)   
    DRY( 74,107)   DRY( 74,108)   DRY( 74,109)   DRY( 74,110)   DRY( 74,111)   
    DRY( 74,112)   DRY( 74,113)   DRY( 74,114)   DRY( 74,115)   DRY( 74,116)   
    DRY( 74,117)   DRY( 74,118)   DRY( 74,119)   DRY( 74,120)   DRY( 74,121)   
    DRY( 74,122)   DRY( 74,123)   DRY( 74,124)   DRY( 74,125)   DRY( 74,126)   
    DRY( 74,127)   DRY( 74,128)   DRY( 74,129)   DRY( 74,130)   DRY( 74,131)   
    DRY( 74,132)   DRY( 74,133)   DRY( 74,134)   DRY( 74,135)   DRY( 74,136)   
    DRY( 74,137)   DRY( 74,138)   DRY( 74,139)   DRY( 74,140)   DRY( 74,141)   
    DRY( 74,142)   DRY( 74,143)   DRY( 74,144)   DRY( 74,145)   DRY( 74,146)   
    DRY( 74,147)   DRY( 74,148)   DRY( 74,149)   DRY( 74,150)   DRY( 74,151)   
    DRY( 74,152)   DRY( 74,153)   DRY( 74,154)   DRY( 74,155)   DRY( 74,156)   
    DRY( 74,157)   DRY( 74,158)   DRY( 74,159)   DRY( 74,160)   DRY( 74,161)   
    DRY( 74,162)   DRY( 74,163)   DRY( 74,164)   DRY( 74,165)   DRY( 74,166)   
    DRY( 74,167)   DRY( 74,168)   DRY( 74,169)   DRY( 74,170)   DRY( 74,171)   
    DRY( 74,172)   DRY( 74,173)   DRY( 74,174)   DRY( 74,175)   DRY( 74,176)   
    DRY( 74,177)   DRY( 74,178)   DRY( 74,179)   DRY( 74,180)   DRY( 74,181)   
    DRY( 74,182)   DRY( 74,183)   DRY( 74,184)   DRY( 74,185)   DRY( 74,186)   
    DRY( 74,187)   DRY( 74,188)   DRY( 74,189)   DRY( 74,190)   DRY( 74,191)   
    DRY( 74,192)   DRY( 74,193)   DRY( 74,194)   DRY( 74,195)   DRY( 74,196)   
    DRY( 74,197)   DRY( 74,198)   DRY( 74,199)   DRY( 74,200)   DRY( 74,201)   
    DRY( 74,202)   DRY( 74,203)   DRY( 74,204)   DRY( 74,205)   DRY( 74,206)   
    DRY( 74,207)   DRY( 74,208)   DRY( 74,209)   DRY( 74,210)   DRY( 74,211)   
    DRY( 74,212)   DRY( 74,213)   DRY( 74,214)   DRY( 74,215)   DRY( 74,216)   
    DRY( 74,217)   DRY( 74,218)   DRY( 74,219)   DRY( 74,220)   

 CELL CONVERSIONS FOR ITER.=  3  LAYER= 24  STEP=  1  PERIOD=   1   (ROW,COL)
    DRY( 72,  1)   DRY( 72,  2)   DRY( 72,  3)   DRY( 72,  4)   DRY( 72,  5)   
    DRY( 72,  6)   DRY( 72,  7)   DRY( 72,  8)   DRY( 72,  9)   DRY( 72, 10)   
    DRY( 72, 11)   DRY( 72, 12)   DRY( 72, 13)   DRY( 72, 14)   DRY( 72, 15)   
    DRY( 72, 16)   DRY( 72, 28)   DRY( 72, 29)   DRY( 72, 30)   DRY( 72, 31)   
    DRY( 72, 32)   DRY( 72, 33)   DRY( 72, 34)   DRY( 72, 35)   DRY( 72, 36)   
    DRY( 72, 37)   DRY( 72, 38)   DRY( 72, 39)   DRY( 72, 40)   DRY( 72, 41)   
    DRY( 72, 42)   DRY( 72, 43)   DRY( 72, 44)   DRY( 72, 45)   DRY( 72, 46)   
    DRY( 72, 47)   DRY( 72, 48)   DRY( 72, 49)   DRY( 72, 50)   DRY( 73,  1)   
    DRY( 73,  2)   DRY( 73,  3)   DRY( 73,  4)   DRY( 73,  5)   DRY( 73,  6)   
    DRY( 73,  7)   DRY( 73,  8)   DRY( 73,  9)   DRY( 73, 10)   DRY( 73, 11)   
    DRY( 73, 12)   DRY( 73, 13)   DRY( 73, 14)   DRY( 73, 15)   DRY( 73, 16)   
    DRY( 73, 17)   DRY( 73, 18)   DRY( 73, 19)   DRY( 73, 20)   DRY( 73, 21)   
    DRY( 73, 22)   DRY( 73, 23)   DRY( 73, 24)   DRY( 73, 25)   DRY( 73, 26)   
    DRY( 73, 27)   DRY( 73, 28)   DRY( 73, 29)   DRY( 73, 30)   DRY( 73, 31)   
    DRY( 73, 32)   DRY( 73, 33)   DRY( 73, 34)   DRY( 73, 35)   DRY( 73, 36)   
    DRY( 73, 37)   DRY( 73, 38)   DRY( 73, 39)   DRY( 73, 40)   DRY( 73, 41)   
    DRY( 73, 42)   DRY( 73, 43)   DRY( 73, 44)   DRY( 73, 45)   DRY( 73, 46)   
    DRY( 73, 47)   DRY( 73, 48)   DRY( 73, 49)   DRY( 73, 50)   DRY( 73, 51)   
    DRY( 73, 52)   DRY( 73, 53)   DRY( 73, 54)   DRY( 73, 55)   DRY( 73, 56)   
    DRY( 73, 57)   DRY( 73, 58)   DRY( 73, 59)   DRY( 73, 60)   DRY( 73, 61)   
    DRY( 73, 62)   DRY( 73, 63)   DRY( 73, 64)   DRY( 73, 65)   DRY( 73, 66)   
    DRY( 73, 67)   DRY( 73, 68)   DRY( 73, 69)   DRY( 73, 70)   DRY( 73, 71)   
    DRY( 73, 72)   DRY( 73, 73)   DRY( 73, 74)   DRY( 73, 75)   DRY( 73, 76)   
    DRY( 73, 77)   DRY( 73, 78)   DRY( 73, 79)   DRY( 73, 80)   DRY( 73, 81)   
    DRY( 73, 82)   DRY( 73, 83)   DRY( 73, 84)   DRY( 73, 85)   DRY( 73, 86)   
    DRY( 73, 87)   DRY( 73, 88)   DRY( 73, 89)   DRY( 73, 90)   DRY( 73, 91)   
    DRY( 73, 92)   DRY( 73, 93)   DRY( 73, 94)   DRY( 73, 95)   DRY( 73, 96)   
    DRY( 73, 97)   DRY( 73, 98)   DRY( 73, 99)   DRY( 73,100)   DRY( 73,101)   
    DRY( 73,102)   DRY( 73,103)   DRY( 73,104)   DRY( 73,105)   DRY( 73,106)   
    DRY( 73,107)   DRY( 73,108)   DRY( 73,109)   DRY( 73,110)   DRY( 73,111)   
    DRY( 73,112)   DRY( 73,113)   DRY( 73,114)   DRY( 73,115)   DRY( 73,116)   
    DRY( 73,117)   DRY( 74,  1)   DRY( 74,  2)   DRY( 74,  3)   DRY( 74,  4)   
    DRY( 74,  5)   DRY( 74,  6)   DRY( 74,  7)   DRY( 74,  8)   DRY( 74,  9)   
    DRY( 74, 10)   DRY( 74, 11)   DRY( 74, 12)   DRY( 74, 13)   DRY( 74, 14)   
    DRY( 74, 15)   DRY( 74, 16)   DRY( 74, 17)   DRY( 74, 18)   DRY( 74, 19)   
    DRY( 74, 20)   DRY( 74, 21)   DRY( 74, 22)   DRY( 74, 23)   DRY( 74, 24)   
    DRY( 74, 25)   DRY( 74, 26)   DRY( 74, 27)   DRY( 74, 28)   DRY( 74, 29)   
    DRY( 74, 30)   DRY( 74, 31)   DRY( 74, 32)   DRY( 74, 33)   DRY( 74, 34)   
    DRY( 74, 35)   DRY( 74, 36)   DRY( 74, 37)   DRY( 74, 38)   DRY( 74, 39)   
    DRY( 74, 40)   DRY( 74, 41)   DRY( 74, 42)   DRY( 74, 43)   DRY( 74, 44)   
    DRY( 74, 45)   DRY( 74, 46)   DRY( 74, 47)   DRY( 74, 48)   DRY( 74, 49)   
    DRY( 74, 50)   DRY( 74, 51)   DRY( 74, 52)   DRY( 74, 53)   DRY( 74, 54)   
    DRY( 74, 55)   DRY( 74, 56)   DRY( 74, 57)   DRY( 74, 58)   DRY( 74, 59)   
    DRY( 74, 60)   DRY( 74, 61)   DRY( 74, 62)   DRY( 74, 63)   DRY( 74, 64)   
    DRY( 74, 65)   DRY( 74, 66)   DRY( 74, 67)   DRY( 74, 68)   DRY( 74, 69)   
    DRY( 74, 70)   DRY( 74, 71)   DRY( 74, 72)   DRY( 74, 73)   DRY( 74, 74)   
    DRY( 74, 75)   DRY( 74, 76)   DRY( 74, 77)   DRY( 74, 78)   DRY( 74, 79)   
    DRY( 74, 80)   DRY( 74, 81)   DRY( 74, 82)   DRY( 74, 83)   DRY( 74, 84)   
    DRY( 74, 85)   DRY( 74, 86)   DRY( 74, 87)   DRY( 74, 88)   DRY( 74, 89)   
    DRY( 74, 90)   DRY( 74, 91)   DRY( 74, 92)   DRY( 74, 93)   DRY( 74, 94)   
    DRY( 74, 95)   DRY( 74, 96)   DRY( 74, 97)   DRY( 74, 98)   DRY( 74, 99)   
    DRY( 74,100)   DRY( 74,101)   DRY( 74,102)   DRY( 74,103)   DRY( 74,104)   
    DRY( 74,105)   DRY( 74,106)   DRY( 74,107)   DRY( 74,108)   DRY( 74,109)   
    DRY( 74,110)   DRY( 74,111)   DRY( 74,112)   DRY( 74,113)   DRY( 74,114)   
    DRY( 74,115)   DRY( 74,116)   DRY( 74,117)   DRY( 74,118)   DRY( 74,119)   
    DRY( 74,120)   DRY( 74,121)   DRY( 74,122)   DRY( 74,123)   DRY( 74,124)   
    DRY( 74,125)   DRY( 74,126)   DRY( 74,127)   DRY( 74,128)   DRY( 74,129)   
    DRY( 74,130)   DRY( 74,131)   DRY( 74,132)   DRY( 74,133)   DRY( 74,134)   
    DRY( 74,135)   DRY( 74,136)   DRY( 74,137)   DRY( 74,138)   DRY( 74,139)   

 CELL CONVERSIONS FOR ITER.=  3  LAYER= 25  STEP=  1  PERIOD=   1   (ROW,COL)
    DRY( 78,  1)   DRY( 78,  2)   DRY( 78,  3)   DRY( 78,  4)   DRY( 78,  5)   
    DRY( 78,  6)   DRY( 78,  7)   DRY( 78,  8)   DRY( 78,  9)   DRY( 78, 10)   
    DRY( 78, 11)   DRY( 78, 12)   DRY( 78, 13)   DRY( 78, 14)   DRY( 78, 15)   
    DRY( 78, 16)   DRY( 78, 17)   DRY( 78, 18)   DRY( 78, 19)   DRY( 78, 20)   
    DRY( 78, 21)   DRY( 78, 22)   DRY( 78, 23)   DRY( 78, 32)   DRY( 78, 33)   
    DRY( 78, 34)   DRY( 78, 35)   DRY( 78, 36)   DRY( 78, 37)   DRY( 78, 38)   
    DRY( 78, 39)   DRY( 78, 40)   DRY( 78, 41)   DRY( 78, 42)   DRY( 78, 43)   
    DRY( 78, 44)   DRY( 78, 45)   DRY( 78, 46)   DRY( 78, 47)   DRY( 78, 48)   
    DRY( 78, 49)   DRY( 78, 50)   DRY( 78, 51)   DRY( 78, 52)   DRY( 78, 53)   
    DRY( 78, 54)   DRY( 78, 55)   DRY( 78, 56)   DRY( 78, 57)   DRY( 78, 58)   
    DRY( 79,  1)   DRY( 79,  2)   DRY( 79,  3)   DRY( 79,  4)   DRY( 79,  5)   
    DRY( 79,  6)   DRY( 79,  7)   DRY( 79,  8)   DRY( 79,  9)   DRY( 79, 10)   
    DRY( 79, 11)   DRY( 79, 12)   DRY( 79, 13)   DRY( 79, 14)   DRY( 79, 15)   
    DRY( 79, 16)   DRY( 79, 17)   DRY( 79, 18)   DRY( 79, 19)   DRY( 79, 20)   
    DRY( 79, 21)   DRY( 79, 22)   DRY( 79, 23)   DRY( 79, 24)   DRY( 79, 25)   
    DRY( 79, 26)   DRY( 79, 27)   DRY( 79, 28)   DRY( 79, 29)   DRY( 79, 30)   
    DRY( 79, 31)   DRY( 79, 32)   DRY( 79, 33)   DRY( 79, 34)   DRY( 79, 35)   
    DRY( 79, 36)   DRY( 79, 37)   DRY( 79, 38)   DRY( 79, 39)   DRY( 79, 40)   
    DRY( 79, 41)   DRY( 79, 42)   DRY( 79, 43)   DRY( 79, 44)   DRY( 79, 45)   
    DRY( 79, 46)   DRY( 79, 47)   DRY( 79, 48)   DRY( 79, 49)   DRY( 79, 50)   
    DRY( 79, 51)   DRY( 79, 52)   DRY( 79, 53)   DRY( 79, 54)   DRY( 79, 55)   
    DRY( 79, 56)   DRY( 79, 57)   DRY( 79, 58)   DRY( 79, 59)   DRY( 79, 60)   
    DRY( 79, 61)   DRY( 79, 62)   DRY( 79, 63)   DRY( 79, 64)   DRY( 79, 65)   
    DRY( 79, 66)   DRY( 79, 67)   DRY( 79, 68)   DRY( 79, 69)   DRY( 79, 70)   
    DRY( 79, 71)   DRY( 79, 72)   DRY( 79, 73)   DRY( 79, 74)   DRY( 79, 75)   
    DRY( 79, 76)   DRY( 79, 77)   DRY( 79, 78)   DRY( 79, 79)   DRY( 79, 80)   
    DRY( 79, 81)   DRY( 79, 82)   DRY( 79, 83)   DRY( 79, 84)   DRY( 79, 85)   
    DRY( 79, 86)   DRY( 79, 87)   DRY( 79, 88)   DRY( 79, 89)   DRY( 79, 90)   
    DRY( 79, 91)   DRY( 79, 92)   DRY( 79, 93)   DRY( 79, 94)   DRY( 79, 95)   
    DRY( 79, 96)   DRY( 79, 97)   DRY( 79, 98)   DRY( 79, 99)   DRY( 79,100)   
    DRY( 79,101)   DRY( 79,102)   DRY( 79,103)   DRY( 79,104)   DRY( 79,105)   
    DRY( 79,106)   DRY( 79,107)   DRY( 79,108)   DRY( 79,109)   DRY( 79,110)   
    DRY( 79,111)   DRY( 79,112)   DRY( 79,113)   DRY( 79,114)   DRY( 79,115)   
    DRY( 79,116)   DRY( 79,117)   DRY( 79,118)   DRY( 79,119)   DRY( 79,120)   
    DRY( 79,121)   DRY( 79,122)   DRY( 79,123)   DRY( 79,124)   DRY( 79,125)   
    DRY( 79,126)   DRY( 79,127)   DRY( 79,128)   DRY( 79,129)   DRY( 79,130)   
    DRY( 79,131)   DRY( 79,132)   DRY( 79,133)   DRY( 79,134)   DRY( 79,135)   
    DRY( 79,136)   DRY( 79,137)   DRY( 79,138)   DRY( 79,139)   DRY( 80,  1)   
    DRY( 80,  2)   DRY( 80,  3)   DRY( 80,  4)   DRY( 80,  5)   DRY( 80,  6)   
    DRY( 80,  7)   DRY( 80,  8)   DRY( 80,  9)   DRY( 80, 10)   DRY( 80, 11)   
    DRY( 80, 12)   DRY( 80, 13)   DRY( 80, 14)   DRY( 80, 15)   DRY( 80, 16)   
    DRY( 80, 17)   DRY( 80, 18)   DRY( 80, 19)   DRY( 80, 20)   DRY( 80, 21)   
    DRY( 80, 22)   DRY( 80, 23)   DRY( 80, 24)   DRY( 80, 25)   DRY( 80, 26)   
    DRY( 80, 27)   DRY( 80, 28)   DRY( 80, 29)   DRY( 80, 30)   DRY( 80, 31)   
    DRY( 80, 32)   DRY( 80, 33)   DRY( 80, 34)   DRY( 80, 35)   DRY( 80, 36)   
    DRY( 80, 37)   DRY( 80, 38)   DRY( 80, 39)   DRY( 80, 40)   DRY( 80, 41)   
    DRY( 80, 42)   DRY( 80, 43)   DRY( 80, 44)   DRY( 80, 45)   DRY( 80, 46)   
    DRY( 80, 47)   DRY( 80, 48)   DRY( 80, 49)   DRY( 80, 50)   DRY( 80, 51)   
    DRY( 80, 52)   DRY( 80, 53)   DRY( 80, 54)   DRY( 80, 55)   DRY( 80, 56)   
    DRY( 80, 57)   DRY( 80, 58)   DRY( 80, 59)   DRY( 80, 60)   DRY( 80, 61)   
    DRY( 80, 62)   DRY( 80, 63)   DRY( 80, 64)   DRY( 80, 65)   DRY( 80, 66)   
    DRY( 80, 67)   DRY( 80, 68)   DRY( 80, 69)   DRY( 80, 70)   DRY( 80, 71)   
    DRY( 80, 72)   DRY( 80, 73)   DRY( 80, 74)   DRY( 80, 75)   DRY( 80, 76)   
    DRY( 80, 77)   DRY( 80, 78)   DRY( 80, 79)   DRY( 80, 80)   DRY( 80, 81)   
    DRY( 80, 82)   DRY( 80, 83)   DRY( 80, 84)   DRY( 80, 85)   DRY( 80, 86)   
    DRY( 80, 87)   DRY( 80, 88)   DRY( 80, 89)   DRY( 80, 90)   DRY( 80, 91)   
    DRY( 80, 92)   DRY( 80, 93)   DRY( 80, 94)   DRY( 80, 95)   DRY( 80, 96)   
    DRY( 80, 97)   DRY( 80, 98)   DRY( 80, 99)   DRY( 80,100)   DRY( 80,101)   
    DRY( 80,102)   DRY( 80,103)   DRY( 80,104)   DRY( 80,105)   DRY( 80,106)   
    DRY( 80,107)   DRY( 80,108)   DRY( 80,109)   DRY( 80,110)   DRY( 80,111)   
    DRY( 80,112)   DRY( 80,113)   DRY( 80,114)   DRY( 80,115)   DRY( 80,116)   
    DRY( 80,117)   DRY( 80,118)   DRY( 80,119)   DRY( 80,120)   DRY( 80,121)   
    DRY( 80,122)   DRY( 80,123)   DRY( 80,124)   DRY( 80,125)   DRY( 80,126)   
    DRY( 80,127)   DRY( 80,128)   DRY( 80,129)   DRY( 80,130)   DRY( 80,131)   
    DRY( 80,132)   DRY( 80,133)   DRY( 80,134)   DRY( 80,135)   DRY( 80,136)   
    DRY( 80,137)   DRY( 80,138)   DRY( 80,139)   DRY( 80,140)   DRY( 80,141)   
    DRY( 80,142)   DRY( 80,143)   DRY( 80,144)   DRY( 80,145)   DRY( 80,146)   
    DRY( 80,147)   DRY( 80,148)   DRY( 80,149)   DRY( 80,150)   DRY( 80,151)   
    DRY( 80,152)   DRY( 80,153)   DRY( 80,154)   DRY( 80,155)   DRY( 80,156)   
    DRY( 80,157)   DRY( 80,158)   DRY( 80,159)   DRY( 80,160)   DRY( 80,161)   
    DRY( 80,162)   DRY( 80,163)   DRY( 80,164)   DRY( 80,165)   DRY( 80,166)   
    DRY( 80,167)   DRY( 80,168)   DRY( 80,169)   DRY( 80,170)   DRY( 80,171)   
    DRY( 80,172)   DRY( 80,173)   DRY( 80,174)   DRY( 80,175)   DRY( 80,176)   
    DRY( 80,177)   DRY( 80,178)   DRY( 80,179)   DRY( 80,180)   DRY( 80,181)   
    DRY( 80,182)   DRY( 80,183)   DRY( 80,184)   DRY( 80,185)   DRY( 80,186)   
    DRY( 80,187)   DRY( 80,188)   DRY( 80,189)   DRY( 80,190)   DRY( 80,191)   
    DRY( 80,192)   DRY( 80,193)   DRY( 80,194)   DRY( 80,195)   DRY( 80,196)   
    DRY( 80,197)   DRY( 80,198)   DRY( 80,199)   DRY( 80,200)   DRY( 80,201)   
    DRY( 80,202)   DRY( 80,203)   DRY( 80,204)   DRY( 80,205)   DRY( 80,206)   
    DRY( 80,207)   DRY( 80,208)   DRY( 81,  1)   DRY( 81,  2)   DRY( 81,  3)   
    DRY( 81,  4)   DRY( 81,  5)   DRY( 81,  6)   DRY( 81,  7)   DRY( 81,  8)   
    DRY( 81,  9)   DRY( 81, 10)   DRY( 81, 11)   DRY( 81, 12)   DRY( 81, 13)   
    DRY( 81, 14)   DRY( 81, 15)   DRY( 81, 16)   DRY( 81, 17)   DRY( 81, 18)   
    DRY( 81, 19)   DRY( 81, 20)   DRY( 81, 21)   DRY( 81, 22)   DRY( 81, 23)   
    DRY( 81, 24)   DRY( 81, 25)   DRY( 81, 26)   DRY( 81, 27)   DRY( 81, 28)   
    DRY( 81, 29)   DRY( 81, 30)   DRY( 81, 31)   DRY( 81, 32)   DRY( 81, 33)   
    DRY( 81, 34)   DRY( 81, 35)   DRY( 81, 36)   DRY( 81, 37)   DRY( 81, 38)   
    DRY( 81, 39)   DRY( 81, 40)   DRY( 81, 41)   DRY( 81, 42)   DRY( 81, 43)   
    DRY( 81, 44)   DRY( 81, 45)   DRY( 81, 46)   DRY( 81, 47)   DRY( 81, 48)   
    DRY( 81, 49)   DRY( 81, 50)   DRY( 81, 51)   DRY( 81, 52)   DRY( 81, 53)   
    DRY( 81, 54)   DRY( 81, 55)   DRY( 81, 56)   DRY( 81, 57)   DRY( 81, 58)   
    DRY( 81, 59)   DRY( 81, 60)   DRY( 81, 61)   DRY( 81, 62)   DRY( 81, 63)   
    DRY( 81, 64)   DRY( 81, 65)   DRY( 81, 66)   DRY( 81, 67)   DRY( 81, 68)   
    DRY( 81, 69)   DRY( 81, 70)   DRY( 81, 71)   DRY( 81, 72)   DRY( 81, 73)   
    DRY( 81, 74)   DRY( 81, 75)   DRY( 81, 76)   DRY( 81, 77)   DRY( 81, 78)   
    DRY( 81, 79)   DRY( 81, 80)   DRY( 81, 81)   DRY( 81, 82)   DRY( 81, 83)   
    DRY( 81, 84)   DRY( 81, 85)   DRY( 81, 86)   DRY( 81, 87)   DRY( 81, 88)   
    DRY( 81, 89)   DRY( 81, 90)   DRY( 81, 91)   DRY( 81, 92)   DRY( 81, 93)   
    DRY( 81, 94)   DRY( 81, 95)   DRY( 81, 96)   DRY( 81, 97)   DRY( 81, 98)   
    DRY( 81, 99)   DRY( 81,100)   DRY( 81,101)   DRY( 81,102)   DRY( 81,103)   
    DRY( 81,104)   DRY( 81,105)   DRY( 81,106)   DRY( 81,107)   DRY( 81,108)   
    DRY( 81,109)   DRY( 81,110)   DRY( 81,111)   DRY( 81,112)   DRY( 81,113)   
    DRY( 81,114)   DRY( 81,115)   DRY( 81,116)   DRY( 81,117)   DRY( 81,118)   
    DRY( 81,119)   DRY( 81,120)   DRY( 81,121)   DRY( 81,122)   DRY( 81,123)   
    DRY( 81,124)   DRY( 81,125)   DRY( 81,126)   DRY( 81,127)   DRY( 81,128)   
    DRY( 81,129)   DRY( 81,130)   DRY( 81,131)   DRY( 81,132)   DRY( 81,133)   
    DRY( 81,134)   DRY( 81,135)   DRY( 81,136)   DRY( 81,137)   DRY( 81,138)   
    DRY( 81,139)   DRY( 81,140)   DRY( 81,141)   DRY( 81,142)   DRY( 81,143)   
    DRY( 81,144)   DRY( 81,145)   DRY( 81,146)   DRY( 81,147)   DRY( 81,148)   
    DRY( 81,149)   DRY( 81,150)   DRY( 81,151)   DRY( 81,152)   DRY( 81,153)   
    DRY( 81,154)   DRY( 81,155)   DRY( 81,156)   DRY( 81,157)   DRY( 81,158)   
    DRY( 81,159)   DRY( 81,160)   DRY( 81,161)   DRY( 81,162)   DRY( 81,163)   
    DRY( 81,164)   DRY( 81,165)   DRY( 81,166)   DRY( 81,167)   DRY( 81,168)   
    DRY( 81,169)   DRY( 81,170)   DRY( 81,171)   DRY( 81,172)   DRY( 81,173)   
    DRY( 81,174)   DRY( 81,175)   DRY( 81,176)   DRY( 81,177)   DRY( 81,178)   
    DRY( 81,179)   DRY( 81,180)   DRY( 81,181)   DRY( 81,182)   DRY( 81,183)   
    DRY( 81,184)   DRY( 81,185)   DRY( 81,186)   DRY( 81,187)   DRY( 81,188)   
    DRY( 81,189)   DRY( 81,190)   DRY( 81,191)   DRY( 81,192)   DRY( 81,193)   
    DRY( 81,194)   DRY( 81,195)   DRY( 81,196)   DRY( 81,197)   DRY( 81,198)   
    DRY( 81,199)   DRY( 81,200)   DRY( 81,201)   DRY( 81,202)   DRY( 81,203)   
    DRY( 81,204)   DRY( 81,205)   DRY( 81,206)   DRY( 81,207)   DRY( 81,208)   
    DRY( 81,209)   DRY( 81,210)   DRY( 81,211)   DRY( 81,212)   DRY( 81,213)   
    DRY( 81,214)   DRY( 81,215)   DRY( 81,216)   DRY( 81,217)   DRY( 81,218)   
    DRY( 81,219)   DRY( 81,220)   DRY( 82,  1)   DRY( 82,  2)   DRY( 82,  3)   
    DRY( 82,  4)   DRY( 82,  5)   DRY( 82,  6)   DRY( 82,  7)   DRY( 82,  8)   
    DRY( 82,  9)   DRY( 82, 10)   DRY( 82, 11)   DRY( 82, 12)   DRY( 82, 13)   
    DRY( 82, 14)   DRY( 82, 15)   DRY( 82, 16)   DRY( 82, 17)   DRY( 82, 18)   
    DRY( 82, 19)   DRY( 82, 20)   DRY( 82, 21)   DRY( 82, 22)   DRY( 82, 23)   
    DRY( 82, 24)   DRY( 82, 25)   DRY( 82, 26)   DRY( 82, 27)   DRY( 82, 28)   
    DRY( 82, 29)   DRY( 82, 30)   DRY( 82, 31)   DRY( 82, 32)   DRY( 82, 33)   
    DRY( 82, 34)   DRY( 82, 35)   DRY( 82, 36)   DRY( 82, 37)   DRY( 82, 38)   
    DRY( 82, 39)   DRY( 82, 40)   DRY( 82, 41)   DRY( 82, 42)   DRY( 82, 43)   
    DRY( 82, 44)   DRY( 82, 45)   DRY( 82, 46)   DRY( 82, 47)   DRY( 82, 48)   
    DRY( 82, 49)   DRY( 82, 50)   DRY( 82, 51)   DRY( 82, 52)   DRY( 82, 53)   
    DRY( 82, 54)   DRY( 82, 55)   DRY( 82, 56)   DRY( 82, 57)   DRY( 82, 58)   
    DRY( 82, 59)   DRY( 82, 60)   DRY( 82, 61)   DRY( 82, 62)   DRY( 82, 63)   
    DRY( 82, 64)   DRY( 82, 65)   DRY( 82, 66)   DRY( 82, 67)   DRY( 82, 68)   
    DRY( 82, 69)   DRY( 82, 70)   DRY( 82, 71)   DRY( 82, 72)   DRY( 82, 73)   
    DRY( 82, 74)   DRY( 82, 75)   DRY( 82, 76)   DRY( 82, 77)   DRY( 82, 78)   
    DRY( 82, 79)   DRY( 82, 80)   DRY( 82, 81)   DRY( 82, 82)   DRY( 82, 83)   
    DRY( 82, 84)   DRY( 82, 85)   DRY( 82, 86)   DRY( 82, 87)   DRY( 82, 88)   
    DRY( 82, 89)   DRY( 82, 90)   DRY( 82, 91)   DRY( 82, 92)   DRY( 82, 93)   
    DRY( 82, 94)   DRY( 82, 95)   DRY( 82, 96)   DRY( 82, 97)   DRY( 82, 98)   
    DRY( 82, 99)   DRY( 82,100)   DRY( 82,101)   DRY( 82,102)   DRY( 82,103)   
    DRY( 82,104)   DRY( 82,105)   DRY( 82,106)   DRY( 82,107)   DRY( 82,108)   
    DRY( 82,109)   DRY( 82,110)   DRY( 82,111)   DRY( 82,112)   DRY( 82,113)   
    DRY( 82,114)   DRY( 82,115)   DRY( 82,116)   DRY( 82,117)   DRY( 82,118)   
    DRY( 82,119)   DRY( 82,120)   DRY( 82,121)   DRY( 82,122)   DRY( 82,123)   
    DRY( 82,124)   DRY( 82,125)   DRY( 82,126)   DRY( 82,127)   DRY( 82,128)   
    DRY( 82,129)   DRY( 82,130)   DRY( 82,131)   DRY( 82,132)   DRY( 82,133)   
    DRY( 82,134)   DRY( 82,135)   DRY( 82,136)   DRY( 82,137)   DRY( 82,138)   
    DRY( 82,139)   DRY( 82,140)   DRY( 82,141)   DRY( 82,142)   DRY( 82,143)   
    DRY( 82,144)   DRY( 82,145)   DRY( 82,146)   DRY( 82,147)   DRY( 82,148)   
    DRY( 82,149)   DRY( 82,150)   DRY( 82,151)   DRY( 82,152)   DRY( 82,153)   
    DRY( 82,154)   DRY( 82,155)   DRY( 82,156)   DRY( 82,157)   DRY( 82,158)   
    DRY( 82,159)   DRY( 82,160)   DRY( 82,161)   DRY( 82,162)   DRY( 82,163)   
    DRY( 82,164)   DRY( 82,165)   DRY( 82,166)   DRY( 82,167)   DRY( 82,168)   
    DRY( 82,169)   DRY( 82,170)   DRY( 82,171)   DRY( 82,172)   DRY( 82,173)   
    DRY( 82,174)   DRY( 82,175)   DRY( 82,176)   DRY( 82,177)   DRY( 82,178)   
    DRY( 82,179)   DRY( 82,180)   DRY( 82,181)   DRY( 82,182)   DRY( 82,183)   
    DRY( 82,184)   DRY( 82,185)   DRY( 82,186)   DRY( 82,187)   DRY( 82,188)   
    DRY( 82,189)   DRY( 82,190)   DRY( 82,191)   DRY( 82,192)   DRY( 82,193)   
    DRY( 82,194)   DRY( 82,195)   DRY( 82,196)   DRY( 82,197)   DRY( 82,198)   
    DRY( 82,199)   DRY( 82,200)   DRY( 82,201)   DRY( 82,202)   DRY( 82,203)   
    DRY( 82,204)   DRY( 82,205)   DRY( 82,206)   DRY( 82,207)   DRY( 82,208)   
    DRY( 82,209)   DRY( 82,210)   DRY( 82,211)   DRY( 82,212)   DRY( 82,213)   
    DRY( 82,214)   DRY( 82,215)   DRY( 82,216)   DRY( 82,217)   DRY( 82,218)   
    DRY( 82,219)   DRY( 82,220)   DRY( 83,  1)   DRY( 83,  2)   DRY( 83,  3)   
    DRY( 83,  4)   DRY( 83,  5)   DRY( 83,  6)   DRY( 83,  7)   DRY( 83,  8)   
    DRY( 83,  9)   DRY( 83, 10)   DRY( 83, 11)   DRY( 83, 12)   DRY( 83, 13)   
    DRY( 83, 14)   DRY( 83, 15)   DRY( 83, 16)   DRY( 83, 17)   DRY( 83, 18)   
    DRY( 83, 19)   DRY( 83, 20)   DRY( 83, 21)   DRY( 83, 22)   DRY( 83, 23)   
    DRY( 83, 24)   DRY( 83, 25)   DRY( 83, 26)   DRY( 83, 27)   DRY( 83, 28)   
    DRY( 83, 29)   DRY( 83, 30)   DRY( 83, 31)   DRY( 83, 32)   DRY( 83, 33)   
    DRY( 83, 34)   DRY( 83, 35)   DRY( 83, 36)   DRY( 83, 37)   DRY( 83, 38)   
    DRY( 83, 39)   DRY( 83, 40)   DRY( 83, 41)   DRY( 83, 42)   DRY( 83, 43)   
    DRY( 83, 44)   DRY( 83, 45)   DRY( 83, 46)   DRY( 83, 47)   DRY( 83, 48)   
    DRY( 83, 49)   DRY( 83, 50)   DRY( 83, 51)   DRY( 83, 52)   DRY( 83, 53)   
    DRY( 83, 54)   DRY( 83, 55)   DRY( 83, 56)   DRY( 83, 57)   DRY( 83, 58)   
    DRY( 83, 59)   DRY( 83, 60)   DRY( 83, 61)   DRY( 83, 62)   DRY( 83, 63)   
    DRY( 83, 64)   DRY( 83, 65)   DRY( 83, 66)   DRY( 83, 67)   DRY( 83, 68)   
    DRY( 83, 69)   DRY( 83, 70)   DRY( 83, 71)   DRY( 83, 72)   DRY( 83, 73)   
    DRY( 83, 74)   DRY( 83, 75)   DRY( 83, 76)   DRY( 83, 77)   DRY( 83, 78)   
    DRY( 83, 79)   DRY( 83, 80)   DRY( 83, 81)   DRY( 83, 82)   DRY( 83, 83)   
    DRY( 83, 84)   DRY( 83, 85)   DRY( 83, 86)   DRY( 83, 87)   DRY( 83, 88)   
    DRY( 83, 89)   DRY( 83, 90)   DRY( 83, 91)   DRY( 83, 92)   DRY( 83, 93)   
    DRY( 83, 94)   DRY( 83, 95)   DRY( 83, 96)   DRY( 83, 97)   DRY( 83, 98)   
    DRY( 83, 99)   DRY( 83,100)   DRY( 83,101)   DRY( 83,102)   DRY( 83,103)   
    DRY( 83,104)   DRY( 83,105)   DRY( 83,106)   DRY( 83,107)   DRY( 83,108)   
    DRY( 83,109)   DRY( 83,110)   DRY( 83,111)   DRY( 83,112)   DRY( 83,113)   
    DRY( 83,114)   DRY( 83,115)   DRY( 83,116)   DRY( 83,117)   DRY( 83,118)   
    DRY( 83,119)   DRY( 83,120)   DRY( 83,121)   DRY( 83,122)   DRY( 83,123)   
    DRY( 83,124)   DRY( 83,125)   DRY( 83,126)   DRY( 83,127)   DRY( 83,128)   
    DRY( 83,129)   DRY( 83,130)   DRY( 83,131)   DRY( 83,132)   DRY( 83,133)   
    DRY( 83,134)   DRY( 83,135)   DRY( 83,136)   DRY( 83,137)   DRY( 83,138)   
    DRY( 83,139)   DRY( 83,140)   DRY( 83,141)   DRY( 83,142)   DRY( 83,143)   
    DRY( 83,144)   DRY( 83,145)   DRY( 83,146)   DRY( 83,147)   DRY( 83,148)   
    DRY( 83,149)   DRY( 83,150)   DRY( 83,151)   DRY( 83,152)   DRY( 83,153)   
    DRY( 83,154)   DRY( 83,155)   DRY( 83,156)   DRY( 83,157)   DRY( 83,158)   
    DRY( 83,159)   DRY( 83,160)   DRY( 83,161)   DRY( 83,162)   DRY( 83,163)   
    DRY( 83,164)   DRY( 83,165)   DRY( 83,166)   DRY( 83,167)   DRY( 83,168)   
    DRY( 83,169)   DRY( 83,170)   DRY( 83,171)   DRY( 83,172)   DRY( 83,173)   
    DRY( 83,174)   DRY( 83,175)   DRY( 83,176)   DRY( 83,177)   DRY( 83,178)   
    DRY( 83,179)   DRY( 83,180)   DRY( 83,181)   DRY( 83,182)   DRY( 83,183)   
    DRY( 83,184)   DRY( 83,185)   DRY( 83,186)   DRY( 83,187)   DRY( 83,188)   
    DRY( 83,189)   DRY( 83,190)   DRY( 83,191)   DRY( 83,192)   DRY( 83,193)   
    DRY( 83,194)   DRY( 83,195)   DRY( 83,196)   DRY( 83,197)   DRY( 83,198)   
    DRY( 83,199)   DRY( 83,200)   DRY( 83,201)   DRY( 83,202)   DRY( 83,203)   
    DRY( 83,204)   DRY( 83,205)   DRY( 83,206)   DRY( 83,207)   DRY( 83,208)   
    DRY( 83,209)   DRY( 83,210)   DRY( 83,211)   DRY( 83,212)   DRY( 83,213)   
    DRY( 83,214)   DRY( 83,215)   DRY( 83,216)   DRY( 83,217)   DRY( 83,218)   
    DRY( 83,219)   DRY( 83,220)   DRY( 84,  1)   DRY( 84,  2)   DRY( 84,  3)   
    DRY( 84,  4)   DRY( 84,  5)   DRY( 84,  6)   DRY( 84,  7)   DRY( 84,  8)   
    DRY( 84,  9)   DRY( 84, 10)   DRY( 84, 11)   DRY( 84, 12)   DRY( 84, 13)   
    DRY( 84, 14)   DRY( 84, 15)   DRY( 84, 16)   DRY( 84, 17)   DRY( 84, 18)   
    DRY( 84, 19)   DRY( 84, 20)   DRY( 84, 21)   DRY( 84, 22)   DRY( 84, 23)   
    DRY( 84, 24)   DRY( 84, 25)   DRY( 84, 26)   DRY( 84, 27)   DRY( 84, 28)   
    DRY( 84, 29)   DRY( 84, 30)   DRY( 84, 31)   DRY( 84, 32)   DRY( 84, 33)   
    DRY( 84, 34)   DRY( 84, 35)   DRY( 84, 36)   DRY( 84, 37)   DRY( 84, 38)   
    DRY( 84, 39)   DRY( 84, 40)   DRY( 84, 41)   DRY( 84, 42)   DRY( 84, 43)   
    DRY( 84, 44)   DRY( 84, 45)   DRY( 84, 46)   DRY( 84, 47)   DRY( 84, 48)   
    DRY( 84, 49)   DRY( 84, 50)   DRY( 84, 51)   DRY( 84, 52)   DRY( 84, 53)   
    DRY( 84, 54)   DRY( 84, 55)   DRY( 84, 56)   DRY( 84, 57)   DRY( 84, 58)   
    DRY( 84, 59)   DRY( 84, 60)   DRY( 84, 61)   DRY( 84, 62)   DRY( 84, 63)   
    DRY( 84, 64)   DRY( 84, 65)   DRY( 84, 66)   DRY( 84, 67)   DRY( 84, 68)   
    DRY( 84, 69)   DRY( 84, 70)   DRY( 84, 71)   DRY( 84, 72)   DRY( 84, 73)   
    DRY( 84, 74)   DRY( 84, 75)   DRY( 84, 76)   DRY( 84, 77)   DRY( 84, 78)   
    DRY( 84, 79)   DRY( 84, 80)   DRY( 84, 81)   DRY( 84, 82)   DRY( 84, 83)   
    DRY( 84, 84)   DRY( 84, 85)   DRY( 84, 86)   DRY( 84, 87)   DRY( 84, 88)   
    DRY( 84, 89)   DRY( 84, 90)   DRY( 84, 91)   DRY( 84, 92)   DRY( 84, 93)   
    DRY( 84, 94)   DRY( 84, 95)   DRY( 84, 96)   DRY( 84, 97)   DRY( 84, 98)   
    DRY( 84, 99)   DRY( 84,100)   DRY( 84,101)   DRY( 84,102)   DRY( 84,103)   
    DRY( 84,104)   DRY( 84,105)   DRY( 84,106)   DRY( 84,107)   DRY( 84,108)   
    DRY( 84,109)   DRY( 84,110)   DRY( 84,111)   DRY( 84,112)   DRY( 84,113)   
    DRY( 84,114)   DRY( 84,115)   DRY( 84,116)   DRY( 84,117)   DRY( 84,118)   
    DRY( 84,119)   DRY( 84,120)   DRY( 84,121)   DRY( 84,122)   DRY( 84,123)   
    DRY( 84,124)   DRY( 84,125)   DRY( 84,126)   DRY( 84,127)   DRY( 84,128)   
    DRY( 84,129)   DRY( 84,130)   DRY( 84,131)   DRY( 84,132)   DRY( 84,133)   
    DRY( 84,134)   DRY( 84,135)   DRY( 84,136)   DRY( 84,137)   DRY( 84,138)   
    DRY( 84,139)   DRY( 84,140)   DRY( 84,141)   DRY( 84,142)   DRY( 84,143)   
    DRY( 84,144)   DRY( 84,145)   DRY( 84,146)   DRY( 84,147)   DRY( 84,148)   
    DRY( 84,149)   DRY( 84,150)   DRY( 84,151)   DRY( 84,152)   DRY( 84,153)   
    DRY( 84,154)   DRY( 84,155)   DRY( 84,156)   DRY( 84,157)   DRY( 84,158)   
    DRY( 84,159)   DRY( 84,160)   DRY( 84,161)   DRY( 84,162)   DRY( 84,163)   
    DRY( 84,164)   DRY( 84,165)   DRY( 84,166)   DRY( 84,167)   DRY( 84,168)   
    DRY( 84,169)   DRY( 84,170)   DRY( 84,171)   DRY( 84,172)   DRY( 84,173)   
    DRY( 84,174)   DRY( 84,175)   DRY( 84,176)   DRY( 84,177)   DRY( 84,178)   
    DRY( 84,179)   DRY( 84,180)   DRY( 84,181)   DRY( 84,182)   DRY( 84,183)   
    DRY( 84,184)   DRY( 84,185)   DRY( 84,186)   DRY( 84,187)   DRY( 84,188)   
    DRY( 84,189)   DRY( 84,190)   DRY( 84,191)   DRY( 84,192)   DRY( 84,193)   
    DRY( 84,194)   DRY( 84,195)   DRY( 84,196)   DRY( 84,197)   DRY( 84,198)   
    DRY( 84,199)   DRY( 84,200)   DRY( 84,201)   DRY( 84,202)   DRY( 84,203)   
    DRY( 84,204)   DRY( 84,205)   DRY( 84,206)   DRY( 84,207)   DRY( 84,208)   
    DRY( 84,209)   DRY( 84,210)   DRY( 84,211)   DRY( 84,212)   DRY( 84,213)   
    DRY( 84,214)   DRY( 84,215)   DRY( 84,216)   DRY( 84,217)   DRY( 84,218)   
    DRY( 84,219)   DRY( 84,220)   

 CELL CONVERSIONS FOR ITER.=  4  LAYER= 10  STEP=  1  PERIOD=   1   (ROW,COL)
    DRY( 16,216)   DRY( 16,217)   DRY( 16,218)   

 CELL CONVERSIONS FOR ITER.=  4  LAYER= 11  STEP=  1  PERIOD=   1   (ROW,COL)
    DRY( 18, 14)   DRY( 18, 15)   DRY( 18, 16)   DRY( 18, 17)   DRY( 18, 18)   
    DRY( 18, 19)   DRY( 18, 20)   DRY( 18, 21)   DRY( 18, 22)   DRY( 18, 23)   
    DRY( 18, 24)   DRY( 18, 25)   DRY( 18, 26)   DRY( 18, 27)   DRY( 18, 28)   
    DRY( 18, 29)   DRY( 18, 30)   DRY( 18, 31)   DRY( 18, 32)   DRY( 18, 33)   
    DRY( 18, 34)   DRY( 18, 35)   DRY( 18, 36)   DRY( 18, 37)   DRY( 18, 38)   
    DRY( 18, 39)   DRY( 18, 40)   DRY( 18, 41)   DRY( 18, 42)   DRY( 18, 43)   
    DRY( 18, 44)   DRY( 18, 45)   DRY( 18, 46)   DRY( 18, 47)   DRY( 18, 48)   
    DRY( 18, 49)   DRY( 18, 50)   DRY( 18, 51)   DRY( 18, 52)   DRY( 18, 53)   
    DRY( 18, 54)   DRY( 18, 55)   DRY( 18, 56)   DRY( 18, 57)   DRY( 18, 58)   
    DRY( 18, 59)   DRY( 18, 60)   DRY( 18, 61)   DRY( 18, 62)   DRY( 18, 63)   
    DRY( 18, 64)   DRY( 18, 65)   DRY( 18, 66)   DRY( 18, 67)   DRY( 18, 68)   
    DRY( 18, 69)   DRY( 18, 70)   DRY( 18, 71)   DRY( 18, 72)   DRY( 18, 73)   
    DRY( 18, 74)   DRY( 18, 75)   DRY( 18, 76)   DRY( 18, 77)   DRY( 18, 78)   
    DRY( 18, 79)   DRY( 18, 80)   DRY( 18, 81)   DRY( 18, 82)   DRY( 18, 83)   
    DRY( 18, 84)   DRY( 18, 85)   DRY( 18, 86)   DRY( 18, 87)   DRY( 18, 88)   
    DRY( 18, 89)   DRY( 18, 90)   DRY( 18, 91)   DRY( 18, 92)   DRY( 18, 93)   
    DRY( 18, 94)   DRY( 18, 95)   DRY( 18, 96)   DRY( 18, 97)   DRY( 18, 98)   
    DRY( 18, 99)   DRY( 18,100)   DRY( 18,101)   DRY( 18,102)   DRY( 18,103)   
    DRY( 18,104)   DRY( 18,105)   DRY( 18,106)   DRY( 18,107)   DRY( 18,108)   
    DRY( 18,109)   DRY( 18,110)   DRY( 18,111)   DRY( 18,112)   DRY( 18,113)   
    DRY( 18,114)   DRY( 18,115)   DRY( 18,116)   DRY( 18,117)   DRY( 18,118)   
    DRY( 18,119)   DRY( 18,120)   DRY( 18,121)   DRY( 18,122)   DRY( 18,123)   
    DRY( 18,124)   DRY( 18,125)   DRY( 18,126)   DRY( 18,127)   DRY( 18,128)   
    DRY( 18,129)   DRY( 18,130)   DRY( 18,131)   DRY( 18,132)   DRY( 18,133)   
    DRY( 18,134)   DRY( 18,135)   DRY( 18,136)   DRY( 18,137)   DRY( 18,138)   
    DRY( 18,139)   DRY( 18,140)   DRY( 18,141)   DRY( 18,142)   DRY( 18,143)   
    DRY( 18,144)   DRY( 18,145)   DRY( 18,146)   DRY( 18,147)   DRY( 18,148)   
    DRY( 18,149)   DRY( 18,150)   DRY( 18,151)   DRY( 18,152)   DRY( 18,153)   
    DRY( 18,154)   DRY( 18,155)   DRY( 18,156)   DRY( 18,157)   DRY( 18,158)   
    DRY( 18,159)   DRY( 18,160)   DRY( 18,161)   DRY( 18,162)   DRY( 18,163)   
    DRY( 18,164)   DRY( 18,165)   DRY( 18,166)   DRY( 18,167)   DRY( 18,168)   
    DRY( 18,169)   DRY( 18,170)   DRY( 18,171)   DRY( 18,172)   DRY( 18,173)   
    DRY( 18,174)   DRY( 18,175)   DRY( 18,176)   DRY( 18,177)   DRY( 18,178)   
    DRY( 18,179)   DRY( 18,180)   DRY( 18,181)   DRY( 18,182)   DRY( 18,183)   
    DRY( 18,184)   DRY( 18,185)   DRY( 18,186)   DRY( 18,187)   DRY( 18,188)   
    DRY( 18,189)   DRY( 18,190)   DRY( 18,191)   DRY( 18,192)   DRY( 18,193)   
    DRY( 18,194)   DRY( 18,195)   DRY( 18,196)   DRY( 18,197)   DRY( 18,198)   

 CELL CONVERSIONS FOR ITER.=  4  LAYER= 12  STEP=  1  PERIOD=   1   (ROW,COL)
    DRY( 21, 22)   DRY( 21, 23)   DRY( 21, 24)   DRY( 21, 25)   DRY( 21, 26)   
    DRY( 21, 27)   DRY( 21, 28)   DRY( 21, 29)   DRY( 21, 30)   DRY( 21, 31)   
    DRY( 21, 32)   DRY( 21, 33)   DRY( 21, 34)   DRY( 21, 35)   DRY( 21, 36)   
    DRY( 21, 37)   DRY( 21, 38)   DRY( 21, 39)   DRY( 21, 40)   DRY( 21, 41)   
    DRY( 21, 42)   DRY( 21, 43)   DRY( 21, 44)   DRY( 21, 45)   DRY( 21, 46)   
    DRY( 21, 47)   DRY( 21, 48)   DRY( 21, 49)   DRY( 21, 50)   DRY( 21, 51)   
    DRY( 21, 52)   DRY( 21, 53)   DRY( 21, 54)   DRY( 21, 55)   DRY( 21, 56)   
    DRY( 21, 57)   DRY( 21, 58)   DRY( 21, 59)   DRY( 21, 60)   DRY( 21, 61)   
    DRY( 21, 62)   DRY( 21, 63)   DRY( 21, 64)   DRY( 21, 65)   DRY( 21, 66)   
    DRY( 21, 67)   DRY( 21, 68)   DRY( 21, 69)   DRY( 21, 70)   DRY( 21, 71)   
    DRY( 21, 72)   DRY( 21, 73)   DRY( 21, 74)   DRY( 21, 75)   DRY( 21, 76)   
    DRY( 21, 77)   DRY( 21, 78)   DRY( 21, 79)   DRY( 21, 80)   DRY( 21, 81)   
    DRY( 21, 82)   DRY( 21, 83)   DRY( 21, 84)   DRY( 21, 85)   DRY( 21, 86)   
    DRY( 21, 87)   DRY( 21, 88)   DRY( 21, 89)   DRY( 21, 90)   DRY( 21, 91)   
    DRY( 21, 92)   DRY( 21, 93)   DRY( 21, 94)   DRY( 21, 95)   DRY( 21, 96)   
    DRY( 21, 97)   DRY( 21, 98)   DRY( 21, 99)   DRY( 21,100)   DRY( 21,101)   
    DRY( 21,102)   DRY( 21,103)   DRY( 21,104)   DRY( 21,105)   DRY( 21,106)   
    DRY( 21,107)   DRY( 21,108)   DRY( 21,109)   DRY( 21,110)   DRY( 21,111)   
    DRY( 21,112)   DRY( 21,113)   DRY( 21,114)   DRY( 21,115)   DRY( 21,116)   
    DRY( 21,150)   DRY( 21,151)   DRY( 21,152)   DRY( 21,153)   DRY( 21,154)   
    DRY( 21,155)   DRY( 21,156)   DRY( 21,157)   DRY( 21,158)   DRY( 21,159)   
    DRY( 21,171)   DRY( 21,172)   DRY( 21,173)   DRY( 21,174)   DRY( 21,175)   
    DRY( 21,176)   DRY( 21,177)   DRY( 21,178)   DRY( 21,179)   DRY( 21,180)   
    DRY( 21,181)   DRY( 21,182)   DRY( 21,183)   DRY( 21,184)   DRY( 21,185)   
    DRY( 21,186)   DRY( 21,187)   DRY( 21,188)   DRY( 21,189)   DRY( 21,190)   
    DRY( 21,191)   DRY( 21,192)   DRY( 21,193)   DRY( 21,194)   DRY( 21,195)   
    DRY( 21,196)   DRY( 21,197)   DRY( 21,198)   DRY( 21,199)   DRY( 21,200)   
    DRY( 21,204)   DRY( 21,205)   DRY( 21,206)   DRY( 21,207)   DRY( 21,208)   
    DRY( 21,209)   DRY( 21,210)   DRY( 21,211)   DRY( 21,212)   DRY( 21,213)   
    DRY( 21,214)   DRY( 21,215)   DRY( 21,216)   DRY( 21,217)   DRY( 21,218)   
    DRY( 21,219)   

 CELL CONVERSIONS FOR ITER.=  4  LAYER= 13  STEP=  1  PERIOD=   1   (ROW,COL)
    DRY( 23,  1)   DRY( 23,  2)   DRY( 23,  3)   DRY( 23,  4)   DRY( 23,  5)   
    DRY( 23,  6)   DRY( 23,  7)   DRY( 23,  8)   DRY( 23,  9)   DRY( 23, 10)   
    DRY( 23, 11)   DRY( 23, 12)   DRY( 23, 13)   DRY( 23, 14)   DRY( 23, 15)   
    DRY( 23, 16)   DRY( 23, 17)   DRY( 23, 18)   DRY( 23, 19)   DRY( 23, 20)   
    DRY( 23, 21)   DRY( 23, 22)   DRY( 23, 23)   DRY( 23, 24)   DRY( 23, 25)   
    DRY( 23, 26)   DRY( 23, 27)   DRY( 23, 28)   DRY( 23, 29)   DRY( 23, 30)   
    DRY( 23, 31)   DRY( 23, 32)   DRY( 23, 33)   DRY( 23, 34)   DRY( 23, 35)   
    DRY( 23, 36)   DRY( 23, 37)   DRY( 23, 38)   DRY( 23, 39)   DRY( 23, 40)   
    DRY( 23, 41)   DRY( 23, 42)   DRY( 23, 43)   DRY( 23, 44)   DRY( 23, 45)   
    DRY( 23, 46)   DRY( 23, 47)   DRY( 23, 48)   DRY( 23, 49)   DRY( 23, 50)   
    DRY( 23, 51)   DRY( 23, 52)   DRY( 23, 53)   DRY( 23, 54)   DRY( 23, 55)   
    DRY( 23, 56)   DRY( 23, 57)   DRY( 23, 58)   DRY( 23, 59)   DRY( 23, 60)   
    DRY( 23, 61)   DRY( 23, 62)   DRY( 23, 63)   DRY( 23, 64)   DRY( 23, 65)   
    DRY( 23, 66)   DRY( 23, 67)   DRY( 23, 68)   DRY( 23, 69)   DRY( 23, 70)   
    DRY( 23, 71)   DRY( 23, 72)   DRY( 23, 73)   DRY( 23, 74)   DRY( 23, 75)   
    DRY( 23, 76)   DRY( 23, 77)   DRY( 23, 78)   DRY( 23, 79)   DRY( 23, 80)   
    DRY( 23, 81)   DRY( 23, 82)   DRY( 23, 83)   DRY( 23, 84)   DRY( 23, 85)   
    DRY( 23, 86)   DRY( 23, 87)   DRY( 23, 88)   DRY( 23, 89)   DRY( 23, 90)   
    DRY( 23, 91)   DRY( 23, 92)   DRY( 23, 93)   DRY( 23, 94)   DRY( 23, 95)   
    DRY( 23, 96)   DRY( 23, 97)   DRY( 23, 98)   DRY( 23, 99)   DRY( 23,100)   
    DRY( 23,101)   DRY( 23,102)   DRY( 23,103)   DRY( 23,104)   DRY( 23,105)   
    DRY( 23,106)   DRY( 23,107)   DRY( 23,108)   DRY( 23,109)   DRY( 23,110)   
    DRY( 23,111)   DRY( 23,112)   DRY( 23,113)   DRY( 23,114)   DRY( 23,115)   
    DRY( 23,116)   DRY( 23,117)   DRY( 23,118)   DRY( 23,119)   DRY( 23,120)   
    DRY( 23,121)   DRY( 23,122)   DRY( 23,123)   DRY( 23,124)   DRY( 23,125)   
    DRY( 23,126)   DRY( 23,127)   DRY( 23,128)   DRY( 23,129)   DRY( 23,130)   
    DRY( 23,131)   DRY( 23,132)   DRY( 23,133)   DRY( 23,134)   DRY( 23,135)   
    DRY( 23,136)   DRY( 23,137)   DRY( 23,138)   DRY( 23,139)   DRY( 23,140)   
    DRY( 23,141)   DRY( 23,142)   DRY( 23,143)   DRY( 23,144)   DRY( 23,145)   
    DRY( 23,146)   DRY( 23,147)   DRY( 23,148)   DRY( 23,149)   DRY( 23,150)   
    DRY( 23,151)   DRY( 23,152)   DRY( 23,153)   DRY( 23,154)   DRY( 23,155)   
    DRY( 23,156)   DRY( 23,157)   DRY( 23,158)   DRY( 23,159)   DRY( 23,160)   
    DRY( 23,161)   DRY( 23,162)   DRY( 23,163)   DRY( 23,164)   DRY( 23,165)   
    DRY( 23,166)   DRY( 23,167)   DRY( 23,168)   DRY( 23,169)   DRY( 23,170)   
    DRY( 23,171)   DRY( 23,172)   DRY( 23,173)   DRY( 23,174)   DRY( 23,175)   
    DRY( 23,176)   DRY( 23,177)   DRY( 23,178)   DRY( 23,179)   DRY( 23,180)   
    DRY( 23,181)   DRY( 23,182)   DRY( 23,183)   DRY( 23,184)   DRY( 23,185)   
    DRY( 23,186)   DRY( 23,187)   DRY( 23,188)   DRY( 23,189)   DRY( 23,190)   
    DRY( 23,191)   DRY( 23,192)   DRY( 23,193)   DRY( 23,194)   DRY( 23,195)   
    DRY( 23,196)   DRY( 23,197)   DRY( 23,198)   DRY( 23,199)   DRY( 23,200)   
    DRY( 23,201)   DRY( 23,202)   DRY( 23,203)   DRY( 23,204)   DRY( 24, 27)   
    DRY( 24, 28)   DRY( 24, 29)   DRY( 24, 30)   DRY( 24, 31)   DRY( 24, 32)   
    DRY( 24, 33)   DRY( 24, 34)   DRY( 24, 35)   DRY( 24, 36)   DRY( 24, 37)   
    DRY( 24, 38)   DRY( 24, 39)   DRY( 24, 40)   DRY( 24, 41)   DRY( 24, 42)   
    DRY( 24, 43)   DRY( 24, 44)   DRY( 24, 45)   DRY( 24, 46)   DRY( 24, 47)   
    DRY( 24, 48)   DRY( 24, 49)   DRY( 24, 50)   DRY( 24, 51)   DRY( 24, 52)   
    DRY( 24, 53)   DRY( 24, 54)   DRY( 24, 55)   DRY( 24, 56)   DRY( 24, 57)   
    DRY( 24, 58)   DRY( 24, 59)   DRY( 24, 60)   DRY( 24, 61)   DRY( 24, 62)   
    DRY( 24, 63)   DRY( 24, 64)   DRY( 24, 65)   DRY( 24, 66)   DRY( 24, 67)   
    DRY( 24, 68)   DRY( 24, 69)   DRY( 24, 70)   DRY( 24, 71)   DRY( 24, 72)   
    DRY( 24, 73)   DRY( 24, 74)   DRY( 24, 75)   DRY( 24, 76)   DRY( 24, 77)   
    DRY( 24, 78)   DRY( 24, 79)   DRY( 24, 80)   DRY( 24, 81)   DRY( 24, 82)   
    DRY( 24, 83)   DRY( 24, 84)   DRY( 24, 85)   DRY( 24, 86)   DRY( 24, 87)   
    DRY( 24, 88)   DRY( 24, 89)   DRY( 24, 90)   DRY( 24, 91)   DRY( 24, 92)   
    DRY( 24, 93)   DRY( 24, 94)   DRY( 24, 95)   DRY( 24, 96)   DRY( 24, 97)   
    DRY( 24, 98)   DRY( 24, 99)   DRY( 24,100)   DRY( 24,101)   DRY( 24,102)   
    DRY( 24,103)   DRY( 24,104)   DRY( 24,105)   DRY( 24,106)   DRY( 24,107)   
    DRY( 24,108)   DRY( 24,109)   DRY( 24,110)   DRY( 24,111)   DRY( 24,112)   
    DRY( 24,113)   DRY( 24,114)   DRY( 24,115)   DRY( 24,116)   DRY( 24,117)   
    DRY( 24,118)   DRY( 24,119)   DRY( 24,120)   DRY( 24,121)   DRY( 24,122)   
    DRY( 24,123)   DRY( 24,132)   DRY( 24,133)   DRY( 24,134)   DRY( 24,135)   
    DRY( 24,136)   DRY( 24,137)   DRY( 24,138)   DRY( 24,139)   DRY( 24,140)   
    DRY( 24,141)   DRY( 24,142)   DRY( 24,143)   DRY( 24,144)   DRY( 24,145)   
    DRY( 24,149)   DRY( 24,150)   DRY( 24,151)   DRY( 24,152)   DRY( 24,153)   
    DRY( 24,154)   DRY( 24,155)   DRY( 24,156)   DRY( 24,157)   DRY( 24,158)   
    DRY( 24,159)   DRY( 24,160)   DRY( 24,161)   DRY( 24,162)   DRY( 24,163)   
    DRY( 24,164)   DRY( 24,165)   DRY( 24,166)   DRY( 24,167)   DRY( 24,168)   
    DRY( 24,169)   DRY( 24,170)   DRY( 24,171)   DRY( 24,172)   DRY( 24,173)   
    DRY( 24,174)   DRY( 24,175)   DRY( 24,176)   DRY( 24,177)   DRY( 24,178)   
    DRY( 24,179)   DRY( 24,180)   DRY( 24,181)   DRY( 24,182)   DRY( 24,183)   
    DRY( 24,184)   DRY( 24,185)   DRY( 24,186)   DRY( 24,187)   DRY( 24,188)   
    DRY( 24,189)   DRY( 24,190)   DRY( 24,191)   DRY( 24,192)   DRY( 24,193)   
    DRY( 24,194)   DRY( 24,195)   DRY( 24,196)   DRY( 24,197)   DRY( 24,198)   
    DRY( 24,199)   DRY( 24,200)   DRY( 24,201)   DRY( 24,202)   DRY( 24,203)   
    DRY( 24,204)   DRY( 24,205)   DRY( 24,206)   DRY( 24,207)   DRY( 24,208)   
    DRY( 24,209)   DRY( 24,210)   DRY( 24,211)   DRY( 24,212)   DRY( 24,213)   
    DRY( 24,214)   DRY( 24,215)   DRY( 24,216)   DRY( 24,217)   DRY( 24,218)   
    DRY( 24,219)   DRY( 24,220)   

 CELL CONVERSIONS FOR ITER.=  4  LAYER= 14  STEP=  1  PERIOD=   1   (ROW,COL)
    DRY( 26,  1)   DRY( 26,  2)   DRY( 26,  3)   DRY( 26,  4)   DRY( 26,  5)   
    DRY( 26,  6)   DRY( 26,  7)   DRY( 26,  8)   DRY( 26,  9)   DRY( 26, 10)   
    DRY( 26, 11)   DRY( 26, 12)   DRY( 26, 13)   DRY( 26, 14)   DRY( 26, 15)   
    DRY( 26, 16)   DRY( 26, 17)   DRY( 26, 18)   DRY( 26, 19)   DRY( 26, 20)   
    DRY( 26, 21)   DRY( 26, 22)   DRY( 26, 23)   DRY( 26, 24)   DRY( 26, 25)   
    DRY( 26, 26)   DRY( 26, 27)   DRY( 26, 28)   DRY( 26, 29)   DRY( 26, 30)   
    DRY( 26, 31)   DRY( 26, 32)   DRY( 26, 33)   DRY( 26, 34)   DRY( 26, 35)   
    DRY( 26, 36)   DRY( 26, 37)   DRY( 26, 38)   DRY( 26, 39)   DRY( 26, 40)   
    DRY( 26, 41)   DRY( 26, 42)   DRY( 26, 43)   DRY( 26, 44)   DRY( 26, 45)   
    DRY( 26, 46)   DRY( 26, 47)   DRY( 26, 48)   DRY( 26, 49)   DRY( 26, 50)   
    DRY( 26, 51)   DRY( 26, 52)   DRY( 26, 53)   DRY( 26, 54)   DRY( 26, 55)   
    DRY( 26, 56)   DRY( 26, 57)   DRY( 26, 58)   DRY( 26, 59)   DRY( 26, 60)   
    DRY( 26, 61)   DRY( 26, 62)   DRY( 26, 63)   DRY( 26, 64)   DRY( 26, 65)   
    DRY( 26, 66)   DRY( 26, 67)   DRY( 26, 68)   DRY( 26, 69)   DRY( 26, 70)   
    DRY( 26, 71)   DRY( 26, 72)   DRY( 26, 73)   DRY( 26, 74)   DRY( 26, 75)   
    DRY( 26, 76)   DRY( 26, 77)   DRY( 26, 78)   DRY( 26, 79)   DRY( 26, 80)   
    DRY( 26, 81)   DRY( 26, 82)   DRY( 26, 83)   DRY( 26, 84)   DRY( 26, 85)   
    DRY( 26, 86)   DRY( 26, 87)   DRY( 26, 88)   DRY( 26, 89)   DRY( 26, 90)   
    DRY( 26, 91)   DRY( 26, 92)   DRY( 26, 93)   DRY( 26, 94)   DRY( 26, 95)   
    DRY( 26, 96)   DRY( 26, 97)   DRY( 26, 98)   DRY( 26, 99)   DRY( 26,100)   
    DRY( 26,101)   DRY( 26,102)   DRY( 26,103)   DRY( 26,104)   DRY( 26,105)   
    DRY( 26,106)   DRY( 26,107)   DRY( 26,108)   DRY( 26,109)   DRY( 26,110)   
    DRY( 26,111)   DRY( 26,112)   DRY( 26,113)   DRY( 26,114)   DRY( 26,115)   
    DRY( 26,116)   DRY( 26,117)   DRY( 26,118)   DRY( 26,119)   DRY( 26,120)   
    DRY( 26,121)   DRY( 26,122)   DRY( 26,123)   DRY( 26,124)   DRY( 26,125)   
    DRY( 26,126)   DRY( 26,127)   DRY( 26,128)   DRY( 26,129)   DRY( 26,130)   
    DRY( 26,131)   DRY( 26,132)   DRY( 26,133)   DRY( 26,134)   DRY( 26,135)   
    DRY( 26,136)   DRY( 26,137)   DRY( 26,138)   DRY( 26,139)   DRY( 26,140)   
    DRY( 26,141)   DRY( 26,142)   DRY( 26,143)   DRY( 26,144)   DRY( 26,145)   
    DRY( 26,146)   DRY( 26,147)   DRY( 26,148)   DRY( 26,149)   DRY( 26,150)   
    DRY( 26,151)   DRY( 26,152)   DRY( 26,153)   DRY( 26,154)   DRY( 26,155)   
    DRY( 26,156)   DRY( 26,157)   DRY( 26,158)   DRY( 26,159)   DRY( 26,160)   
    DRY( 26,161)   DRY( 26,162)   DRY( 26,163)   DRY( 26,164)   DRY( 26,165)   
    DRY( 26,166)   DRY( 26,167)   DRY( 26,168)   DRY( 26,169)   DRY( 26,170)   
    DRY( 26,171)   DRY( 26,172)   DRY( 26,173)   DRY( 26,174)   DRY( 26,175)   
    DRY( 26,176)   DRY( 26,177)   DRY( 26,178)   DRY( 26,179)   DRY( 26,180)   
    DRY( 26,181)   DRY( 26,182)   DRY( 26,183)   DRY( 26,184)   DRY( 26,185)   
    DRY( 26,186)   DRY( 26,187)   DRY( 26,188)   DRY( 26,189)   DRY( 26,190)   
    DRY( 26,191)   DRY( 26,192)   DRY( 26,193)   DRY( 26,194)   DRY( 26,195)   
    DRY( 26,196)   DRY( 26,197)   DRY( 26,198)   DRY( 26,199)   DRY( 26,200)   
    DRY( 26,201)   DRY( 26,202)   DRY( 26,203)   DRY( 26,204)   DRY( 26,205)   
    DRY( 26,206)   DRY( 26,207)   DRY( 26,208)   DRY( 26,209)   DRY( 26,210)   
    DRY( 26,211)   DRY( 26,212)   DRY( 26,213)   DRY( 26,214)   DRY( 26,215)   
    DRY( 26,216)   DRY( 26,217)   DRY( 26,218)   DRY( 26,219)   DRY( 26,220)   
    DRY( 27, 29)   DRY( 27, 30)   DRY( 27, 31)   DRY( 27, 32)   DRY( 27, 33)   
    DRY( 27, 34)   DRY( 27, 35)   DRY( 27, 36)   DRY( 27, 37)   DRY( 27, 38)   
    DRY( 27, 39)   DRY( 27, 40)   DRY( 27, 41)   DRY( 27, 42)   DRY( 27, 43)   
    DRY( 27, 44)   DRY( 27, 45)   DRY( 27, 46)   DRY( 27, 47)   DRY( 27, 48)   
    DRY( 27, 49)   DRY( 27, 50)   DRY( 27, 51)   DRY( 27, 52)   DRY( 27, 53)   
    DRY( 27, 54)   DRY( 27, 55)   DRY( 27, 56)   DRY( 27, 57)   DRY( 27, 58)   
    DRY( 27, 59)   DRY( 27, 60)   DRY( 27, 61)   DRY( 27, 62)   DRY( 27, 63)   
    DRY( 27, 64)   DRY( 27, 65)   DRY( 27, 66)   DRY( 27, 67)   DRY( 27, 68)   
    DRY( 27, 69)   DRY( 27, 70)   DRY( 27, 71)   DRY( 27, 72)   DRY( 27, 73)   
    DRY( 27, 74)   DRY( 27, 75)   DRY( 27, 76)   DRY( 27, 77)   DRY( 27, 78)   
    DRY( 27, 79)   DRY( 27, 80)   DRY( 27, 81)   DRY( 27, 82)   DRY( 27, 83)   
    DRY( 27, 84)   DRY( 27, 85)   DRY( 27, 86)   DRY( 27, 87)   DRY( 27, 88)   
    DRY( 27, 89)   DRY( 27, 90)   DRY( 27, 91)   DRY( 27, 92)   DRY( 27, 93)   
    DRY( 27, 94)   DRY( 27, 95)   DRY( 27, 96)   DRY( 27, 97)   DRY( 27, 98)   
    DRY( 27, 99)   DRY( 27,100)   DRY( 27,101)   DRY( 27,102)   DRY( 27,103)   
    DRY( 27,104)   DRY( 27,105)   DRY( 27,106)   DRY( 27,107)   DRY( 27,108)   
    DRY( 27,109)   DRY( 27,110)   DRY( 27,111)   DRY( 27,112)   DRY( 27,113)   
    DRY( 27,114)   DRY( 27,115)   DRY( 27,116)   DRY( 27,117)   DRY( 27,118)   
    DRY( 27,119)   DRY( 27,120)   DRY( 27,121)   DRY( 27,122)   DRY( 27,123)   
    DRY( 27,124)   DRY( 27,125)   DRY( 27,126)   DRY( 27,127)   DRY( 27,128)   
    DRY( 27,129)   DRY( 27,130)   DRY( 27,131)   DRY( 27,132)   DRY( 27,133)   
    DRY( 27,134)   DRY( 27,135)   DRY( 27,136)   DRY( 27,137)   DRY( 27,138)   
    DRY( 27,139)   DRY( 27,140)   DRY( 27,141)   DRY( 27,142)   DRY( 27,143)   
    DRY( 27,144)   DRY( 27,145)   DRY( 27,146)   DRY( 27,147)   DRY( 27,148)   
    DRY( 27,149)   DRY( 27,150)   DRY( 27,151)   DRY( 27,152)   DRY( 27,153)   
    DRY( 27,154)   DRY( 27,155)   DRY( 27,156)   DRY( 27,157)   DRY( 27,158)   
    DRY( 27,159)   DRY( 27,160)   DRY( 27,161)   DRY( 27,162)   DRY( 27,163)   
    DRY( 27,164)   DRY( 27,165)   DRY( 27,166)   DRY( 27,167)   DRY( 27,168)   
    DRY( 27,169)   DRY( 27,170)   DRY( 27,171)   DRY( 27,172)   DRY( 27,173)   
    DRY( 27,174)   DRY( 27,175)   DRY( 27,176)   DRY( 27,177)   DRY( 27,178)   
    DRY( 27,179)   DRY( 27,180)   DRY( 27,181)   DRY( 27,182)   DRY( 27,183)   
    DRY( 27,184)   DRY( 27,185)   DRY( 27,186)   DRY( 27,187)   DRY( 27,188)   
    DRY( 27,189)   DRY( 27,190)   DRY( 27,191)   DRY( 27,192)   DRY( 27,193)   
    DRY( 27,194)   DRY( 27,195)   DRY( 27,196)   DRY( 27,197)   DRY( 27,198)   
    DRY( 27,199)   DRY( 27,200)   DRY( 27,201)   DRY( 27,202)   DRY( 27,203)   
    DRY( 27,204)   DRY( 27,205)   DRY( 27,206)   DRY( 27,207)   DRY( 27,208)   
    DRY( 27,209)   DRY( 27,210)   DRY( 27,211)   DRY( 27,212)   DRY( 27,213)   
    DRY( 27,214)   DRY( 27,215)   DRY( 27,216)   DRY( 27,217)   DRY( 27,218)   
    DRY( 27,219)   DRY( 27,220)   

 CELL CONVERSIONS FOR ITER.=  4  LAYER= 15  STEP=  1  PERIOD=   1   (ROW,COL)
    DRY( 28,  1)   DRY( 28,  2)   DRY( 28,  3)   DRY( 28,  4)   DRY( 28,  5)   
    DRY( 28,  6)   DRY( 28,  7)   DRY( 28,  8)   DRY( 28,  9)   DRY( 28, 10)   
    DRY( 28, 11)   DRY( 28, 12)   DRY( 28, 13)   DRY( 28, 14)   DRY( 28, 15)   
    DRY( 28, 16)   DRY( 28, 17)   DRY( 28, 18)   DRY( 28, 62)   DRY( 28, 63)   
    DRY( 28, 64)   DRY( 28, 65)   DRY( 28, 66)   DRY( 28, 67)   DRY( 28, 68)   
    DRY( 28, 69)   DRY( 28, 70)   DRY( 28, 71)   DRY( 28, 72)   DRY( 28, 73)   
    DRY( 28, 74)   DRY( 28, 75)   DRY( 28, 76)   DRY( 28, 77)   DRY( 28, 78)   
    DRY( 28, 79)   DRY( 28, 80)   DRY( 28, 81)   DRY( 28, 82)   DRY( 28, 83)   
    DRY( 28, 84)   DRY( 28, 85)   DRY( 28, 86)   DRY( 28, 87)   DRY( 28, 88)   
    DRY( 28, 89)   DRY( 28, 90)   DRY( 28, 91)   DRY( 28, 92)   DRY( 28, 93)   
    DRY( 28, 94)   DRY( 28, 95)   DRY( 28, 96)   DRY( 28, 97)   DRY( 28, 98)   
    DRY( 28, 99)   DRY( 28,100)   DRY( 28,101)   DRY( 28,102)   DRY( 28,103)   
    DRY( 28,104)   DRY( 28,105)   DRY( 28,106)   DRY( 28,107)   DRY( 28,108)   
    DRY( 28,109)   DRY( 28,110)   DRY( 28,111)   DRY( 28,112)   DRY( 28,113)   
    DRY( 28,114)   DRY( 28,115)   DRY( 28,116)   DRY( 28,117)   DRY( 28,118)   
    DRY( 28,119)   DRY( 28,120)   DRY( 28,121)   DRY( 28,122)   DRY( 28,123)   
    DRY( 28,124)   DRY( 28,125)   DRY( 28,126)   DRY( 28,127)   DRY( 28,128)   
    DRY( 28,129)   DRY( 28,130)   DRY( 28,131)   DRY( 28,132)   DRY( 28,133)   
    DRY( 28,134)   DRY( 28,135)   DRY( 28,136)   DRY( 28,137)   DRY( 28,138)   
    DRY( 28,139)   DRY( 28,140)   DRY( 28,141)   DRY( 28,142)   DRY( 28,143)   
    DRY( 28,144)   DRY( 28,145)   DRY( 28,146)   DRY( 28,147)   DRY( 28,148)   
    DRY( 28,149)   DRY( 28,150)   DRY( 28,151)   DRY( 28,152)   DRY( 28,153)   
    DRY( 28,154)   DRY( 28,155)   DRY( 28,156)   DRY( 28,157)   DRY( 28,158)   
    DRY( 28,159)   DRY( 28,160)   DRY( 28,161)   DRY( 28,162)   DRY( 28,163)   
    DRY( 28,164)   DRY( 28,165)   DRY( 28,166)   DRY( 28,167)   DRY( 28,168)   
    DRY( 28,169)   DRY( 28,170)   DRY( 28,171)   DRY( 28,172)   DRY( 28,173)   
    DRY( 28,174)   DRY( 28,175)   DRY( 28,176)   DRY( 28,177)   DRY( 28,178)   
    DRY( 28,179)   DRY( 28,180)   DRY( 28,181)   DRY( 28,182)   DRY( 28,183)   
    DRY( 28,184)   DRY( 28,185)   DRY( 28,186)   DRY( 28,187)   DRY( 28,188)   
    DRY( 28,189)   DRY( 28,190)   DRY( 28,200)   DRY( 28,201)   DRY( 28,202)   
    DRY( 29,  1)   DRY( 29,  2)   DRY( 29,  3)   DRY( 29,  4)   DRY( 29,  5)   
    DRY( 29,  6)   DRY( 29,  7)   DRY( 29,  8)   DRY( 29,  9)   DRY( 29, 10)   
    DRY( 29, 11)   DRY( 29, 12)   DRY( 29, 13)   DRY( 29, 14)   DRY( 29, 15)   
    DRY( 29, 16)   DRY( 29, 17)   DRY( 29, 18)   DRY( 29, 19)   DRY( 29, 20)   
    DRY( 29, 21)   DRY( 29, 22)   DRY( 29, 23)   DRY( 29, 24)   DRY( 29, 25)   
    DRY( 29, 26)   DRY( 29, 27)   DRY( 29, 28)   DRY( 29, 29)   DRY( 29, 30)   
    DRY( 29, 31)   DRY( 29, 32)   DRY( 29, 33)   DRY( 29, 34)   DRY( 29, 35)   
    DRY( 29, 36)   DRY( 29, 37)   DRY( 29, 38)   DRY( 29, 39)   DRY( 29, 40)   
    DRY( 29, 41)   DRY( 29, 42)   DRY( 29, 43)   DRY( 29, 44)   DRY( 29, 45)   
    DRY( 29, 46)   DRY( 29, 47)   DRY( 29, 48)   DRY( 29, 49)   DRY( 29, 50)   
    DRY( 29, 51)   DRY( 29, 52)   DRY( 29, 53)   DRY( 29, 54)   DRY( 29, 55)   
    DRY( 29, 56)   DRY( 29, 57)   DRY( 29, 58)   DRY( 29, 59)   DRY( 29, 60)   
    DRY( 29, 61)   DRY( 29, 62)   DRY( 29, 63)   DRY( 29, 64)   DRY( 29, 65)   
    DRY( 29, 66)   DRY( 29, 67)   DRY( 29, 68)   DRY( 29, 69)   DRY( 29, 70)   
    DRY( 29, 71)   DRY( 29, 72)   DRY( 29, 73)   DRY( 29, 74)   DRY( 29, 75)   
    DRY( 29, 76)   DRY( 29, 77)   DRY( 29, 78)   DRY( 29, 79)   DRY( 29, 80)   
    DRY( 29, 81)   DRY( 29, 82)   DRY( 29, 83)   DRY( 29, 84)   DRY( 29, 85)   
    DRY( 29, 86)   DRY( 29, 87)   DRY( 29, 88)   DRY( 29, 89)   DRY( 29, 90)   
    DRY( 29, 91)   DRY( 29, 92)   DRY( 29, 93)   DRY( 29, 94)   DRY( 29, 95)   
    DRY( 29, 96)   DRY( 29, 97)   DRY( 29, 98)   DRY( 29, 99)   DRY( 29,100)   
    DRY( 29,101)   DRY( 29,102)   DRY( 29,103)   DRY( 29,104)   DRY( 29,105)   
    DRY( 29,106)   DRY( 29,107)   DRY( 29,108)   DRY( 29,109)   DRY( 29,110)   
    DRY( 29,111)   DRY( 29,112)   DRY( 29,113)   DRY( 29,114)   DRY( 29,115)   
    DRY( 29,116)   DRY( 29,117)   DRY( 29,118)   DRY( 29,119)   DRY( 29,120)   
    DRY( 29,121)   DRY( 29,122)   DRY( 29,123)   DRY( 29,124)   DRY( 29,125)   
    DRY( 29,126)   DRY( 29,127)   DRY( 29,128)   DRY( 29,129)   DRY( 29,130)   
    DRY( 29,131)   DRY( 29,132)   DRY( 29,133)   DRY( 29,134)   DRY( 29,135)   
    DRY( 29,136)   DRY( 29,137)   DRY( 29,138)   DRY( 29,139)   DRY( 29,140)   
    DRY( 29,141)   DRY( 29,142)   DRY( 29,143)   DRY( 29,144)   DRY( 29,145)   
    DRY( 29,146)   DRY( 29,147)   DRY( 29,148)   DRY( 29,149)   DRY( 29,150)   
    DRY( 29,151)   DRY( 29,152)   DRY( 29,153)   DRY( 29,154)   DRY( 29,155)   
    DRY( 29,156)   DRY( 29,157)   DRY( 29,158)   DRY( 29,159)   DRY( 29,160)   
    DRY( 29,161)   DRY( 29,162)   DRY( 29,163)   DRY( 29,164)   DRY( 29,165)   
    DRY( 29,166)   DRY( 29,167)   DRY( 29,168)   DRY( 29,169)   DRY( 29,170)   
    DRY( 29,171)   DRY( 29,172)   DRY( 29,173)   DRY( 29,174)   DRY( 29,175)   
    DRY( 29,176)   DRY( 29,177)   DRY( 29,178)   DRY( 29,179)   DRY( 29,180)   
    DRY( 29,181)   DRY( 29,182)   DRY( 29,183)   DRY( 29,184)   DRY( 29,185)   
    DRY( 29,186)   DRY( 29,187)   DRY( 29,188)   DRY( 29,189)   DRY( 29,190)   
    DRY( 29,191)   DRY( 29,192)   DRY( 29,193)   DRY( 29,194)   DRY( 29,195)   
    DRY( 29,196)   DRY( 29,197)   DRY( 29,198)   DRY( 29,199)   DRY( 29,200)   
    DRY( 29,201)   DRY( 29,202)   DRY( 29,203)   DRY( 29,204)   DRY( 29,205)   
    DRY( 29,206)   DRY( 29,207)   DRY( 29,208)   DRY( 29,209)   DRY( 29,210)   
    DRY( 29,211)   DRY( 29,212)   DRY( 29,213)   DRY( 29,214)   DRY( 29,215)   
    DRY( 29,216)   DRY( 29,217)   DRY( 29,218)   DRY( 29,219)   DRY( 29,220)   
    DRY( 30, 24)   DRY( 30, 25)   DRY( 30, 26)   DRY( 30, 27)   DRY( 30, 28)   
    DRY( 30, 29)   DRY( 30, 30)   DRY( 30, 31)   DRY( 30, 32)   DRY( 30, 33)   
    DRY( 30, 34)   DRY( 30, 35)   DRY( 30, 36)   DRY( 30, 37)   DRY( 30, 38)   
    DRY( 30, 39)   DRY( 30, 40)   DRY( 30, 41)   DRY( 30, 42)   DRY( 30, 43)   
    DRY( 30, 44)   DRY( 30, 45)   DRY( 30, 46)   DRY( 30, 47)   DRY( 30, 48)   
    DRY( 30, 49)   DRY( 30, 50)   DRY( 30, 51)   DRY( 30, 52)   DRY( 30, 53)   
    DRY( 30, 54)   DRY( 30, 55)   DRY( 30, 56)   DRY( 30, 57)   DRY( 30, 58)   
    DRY( 30, 59)   DRY( 30, 60)   DRY( 30, 61)   DRY( 30, 62)   DRY( 30, 63)   
    DRY( 30, 64)   DRY( 30, 65)   DRY( 30, 66)   DRY( 30, 67)   DRY( 30, 68)   
    DRY( 30, 69)   DRY( 30, 70)   DRY( 30, 71)   DRY( 30, 72)   DRY( 30, 73)   
    DRY( 30, 74)   DRY( 30, 75)   DRY( 30, 76)   DRY( 30, 77)   DRY( 30, 78)   
    DRY( 30, 79)   DRY( 30, 80)   DRY( 30, 81)   DRY( 30, 82)   DRY( 30, 83)   
    DRY( 30, 84)   DRY( 30, 85)   DRY( 30, 86)   DRY( 30, 87)   DRY( 30, 88)   
    DRY( 30, 89)   DRY( 30, 90)   DRY( 30, 91)   DRY( 30, 92)   DRY( 30, 93)   
    DRY( 30, 94)   DRY( 30, 95)   DRY( 30, 96)   DRY( 30, 97)   DRY( 30, 98)   
    DRY( 30, 99)   DRY( 30,100)   DRY( 30,101)   DRY( 30,102)   DRY( 30,103)   
    DRY( 30,104)   DRY( 30,105)   DRY( 30,106)   DRY( 30,107)   DRY( 30,108)   
    DRY( 30,109)   DRY( 30,110)   DRY( 30,111)   DRY( 30,112)   DRY( 30,113)   
    DRY( 30,114)   DRY( 30,115)   DRY( 30,116)   DRY( 30,117)   DRY( 30,118)   
    DRY( 30,119)   DRY( 30,120)   DRY( 30,121)   DRY( 30,122)   DRY( 30,123)   
    DRY( 30,124)   DRY( 30,125)   DRY( 30,126)   DRY( 30,127)   DRY( 30,128)   
    DRY( 30,129)   DRY( 30,130)   DRY( 30,131)   DRY( 30,132)   DRY( 30,133)   
    DRY( 30,134)   DRY( 30,135)   DRY( 30,136)   DRY( 30,137)   DRY( 30,138)   
    DRY( 30,139)   DRY( 30,140)   DRY( 30,141)   DRY( 30,142)   DRY( 30,143)   
    DRY( 30,144)   DRY( 30,145)   DRY( 30,146)   DRY( 30,147)   DRY( 30,148)   
    DRY( 30,149)   DRY( 30,150)   DRY( 30,151)   DRY( 30,152)   DRY( 30,153)   
    DRY( 30,154)   DRY( 30,155)   DRY( 30,156)   DRY( 30,157)   DRY( 30,158)   
    DRY( 30,159)   DRY( 30,160)   DRY( 30,161)   DRY( 30,162)   DRY( 30,163)   
    DRY( 30,164)   DRY( 30,165)   DRY( 30,166)   DRY( 30,167)   DRY( 30,168)   
    DRY( 30,169)   DRY( 30,170)   DRY( 30,171)   DRY( 30,172)   DRY( 30,173)   
    DRY( 30,174)   DRY( 30,175)   DRY( 30,176)   DRY( 30,177)   DRY( 30,178)   
    DRY( 30,179)   DRY( 30,180)   DRY( 30,181)   DRY( 30,182)   DRY( 30,183)   
    DRY( 30,184)   DRY( 30,185)   DRY( 30,186)   DRY( 30,187)   DRY( 30,188)   
    DRY( 30,189)   DRY( 30,190)   DRY( 30,191)   DRY( 30,192)   DRY( 30,193)   
    DRY( 30,194)   DRY( 30,195)   DRY( 30,196)   DRY( 30,197)   DRY( 30,198)   
    DRY( 30,199)   DRY( 30,200)   DRY( 30,201)   DRY( 30,202)   DRY( 30,203)   
    DRY( 30,204)   DRY( 30,205)   DRY( 30,206)   DRY( 30,207)   DRY( 30,208)   
    DRY( 30,209)   DRY( 30,210)   DRY( 30,211)   DRY( 30,212)   DRY( 30,213)   
    DRY( 30,214)   DRY( 30,215)   DRY( 30,216)   DRY( 30,217)   DRY( 30,218)   
    DRY( 30,219)   DRY( 30,220)   DRY( 31,192)   DRY( 31,193)   DRY( 31,194)   
    DRY( 31,195)   DRY( 31,196)   DRY( 31,197)   DRY( 31,198)   DRY( 31,199)   
    DRY( 31,200)   DRY( 31,201)   DRY( 31,202)   DRY( 31,203)   DRY( 31,204)   
    DRY( 31,205)   DRY( 31,206)   DRY( 31,207)   DRY( 31,208)   DRY( 31,209)   
    DRY( 31,210)   DRY( 31,211)   DRY( 31,212)   DRY( 31,213)   DRY( 31,214)   
    DRY( 31,215)   DRY( 31,216)   DRY( 31,217)   DRY( 31,218)   DRY( 31,219)   
    DRY( 31,220)   

 CELL CONVERSIONS FOR ITER.=  4  LAYER= 16  STEP=  1  PERIOD=   1   (ROW,COL)
    DRY( 31,  1)   DRY( 31,  2)   DRY( 31,  3)   DRY( 31,  4)   DRY( 31,  5)   
    DRY( 31,  6)   DRY( 31,  7)   DRY( 31,  8)   DRY( 31,  9)   DRY( 31, 10)   
    DRY( 31, 11)   DRY( 31, 12)   DRY( 31, 13)   DRY( 31, 14)   DRY( 31, 15)   
    DRY( 31, 16)   DRY( 31, 17)   DRY( 31, 18)   DRY( 31, 19)   DRY( 31, 20)   
    DRY( 31, 21)   DRY( 31, 22)   DRY( 31, 23)   DRY( 31, 24)   DRY( 31, 25)   
    DRY( 31, 26)   DRY( 31, 27)   DRY( 31, 28)   DRY( 31, 29)   DRY( 31, 30)   
    DRY( 31, 31)   DRY( 31, 32)   DRY( 31, 33)   DRY( 31, 34)   DRY( 31, 35)   
    DRY( 31, 36)   DRY( 31, 37)   DRY( 31, 38)   DRY( 31, 39)   DRY( 31, 40)   
    DRY( 31, 41)   DRY( 31, 42)   DRY( 31, 43)   DRY( 31, 44)   DRY( 31, 45)   
    DRY( 31, 46)   DRY( 31, 47)   DRY( 31, 48)   DRY( 31, 49)   DRY( 31, 50)   
    DRY( 31, 51)   DRY( 31, 52)   DRY( 31, 53)   DRY( 31, 54)   DRY( 31, 55)   
    DRY( 31, 56)   DRY( 31, 57)   DRY( 31, 58)   DRY( 31, 59)   DRY( 31, 60)   
    DRY( 31, 61)   DRY( 31, 62)   DRY( 31, 63)   DRY( 31, 64)   DRY( 31, 65)   
    DRY( 31, 66)   DRY( 31, 67)   DRY( 31, 68)   DRY( 31, 69)   DRY( 31, 70)   
    DRY( 31, 71)   DRY( 31, 72)   DRY( 31, 73)   DRY( 31, 74)   DRY( 31, 75)   
    DRY( 31, 76)   DRY( 31, 77)   DRY( 31, 78)   DRY( 31, 79)   DRY( 31, 80)   
    DRY( 31, 81)   DRY( 31, 82)   DRY( 31, 83)   DRY( 31, 84)   DRY( 31, 85)   
    DRY( 31, 86)   DRY( 31, 87)   DRY( 31, 88)   DRY( 31, 89)   DRY( 31, 90)   
    DRY( 31, 91)   DRY( 31, 92)   DRY( 31, 93)   DRY( 31, 94)   DRY( 31, 95)   
    DRY( 31, 96)   DRY( 31, 97)   DRY( 31, 98)   DRY( 31, 99)   DRY( 31,100)   
    DRY( 31,101)   DRY( 31,102)   DRY( 31,103)   DRY( 31,104)   DRY( 31,105)   
    DRY( 31,106)   DRY( 31,107)   DRY( 31,108)   DRY( 31,109)   DRY( 31,110)   
    DRY( 31,111)   DRY( 31,112)   DRY( 31,113)   DRY( 31,114)   DRY( 31,115)   
    DRY( 31,116)   DRY( 31,117)   DRY( 31,118)   DRY( 31,119)   DRY( 31,120)   
    DRY( 31,121)   DRY( 31,122)   DRY( 31,123)   DRY( 31,124)   DRY( 31,125)   
    DRY( 31,126)   DRY( 31,127)   DRY( 31,128)   DRY( 31,129)   DRY( 31,130)   
    DRY( 31,131)   DRY( 31,132)   DRY( 31,133)   DRY( 31,134)   DRY( 31,135)   
    DRY( 31,136)   DRY( 31,137)   DRY( 31,138)   DRY( 31,139)   DRY( 31,140)   
    DRY( 31,141)   DRY( 31,142)   DRY( 31,143)   DRY( 31,144)   DRY( 31,145)   
    DRY( 31,146)   DRY( 31,147)   DRY( 31,148)   DRY( 31,149)   DRY( 31,150)   
    DRY( 31,151)   DRY( 31,152)   DRY( 31,153)   DRY( 31,154)   DRY( 31,155)   
    DRY( 31,156)   DRY( 31,157)   DRY( 31,158)   DRY( 31,159)   DRY( 31,160)   
    DRY( 31,161)   DRY( 31,162)   DRY( 31,163)   DRY( 31,164)   DRY( 31,165)   
    DRY( 31,166)   DRY( 31,167)   DRY( 31,168)   DRY( 31,169)   DRY( 31,170)   
    DRY( 31,171)   DRY( 31,172)   DRY( 31,173)   DRY( 31,174)   DRY( 31,175)   
    DRY( 31,176)   DRY( 31,177)   DRY( 31,178)   DRY( 31,179)   DRY( 31,180)   
    DRY( 31,181)   DRY( 31,182)   DRY( 31,183)   DRY( 31,184)   DRY( 31,185)   
    DRY( 31,186)   DRY( 31,187)   DRY( 31,188)   DRY( 31,189)   DRY( 31,190)   
    DRY( 31,191)   DRY( 31,192)   DRY( 31,193)   DRY( 31,194)   DRY( 31,195)   
    DRY( 31,196)   DRY( 31,197)   DRY( 31,198)   DRY( 31,199)   DRY( 31,200)   
    DRY( 31,201)   DRY( 31,202)   DRY( 31,203)   DRY( 31,204)   DRY( 31,205)   
    DRY( 31,206)   DRY( 31,207)   DRY( 31,208)   DRY( 31,209)   DRY( 32,  1)   
    DRY( 32,  2)   DRY( 32,  3)   DRY( 32,  4)   DRY( 32,  5)   DRY( 32,  6)   
    DRY( 32,  7)   DRY( 32,  8)   DRY( 32,  9)   DRY( 32, 10)   DRY( 32, 11)   
    DRY( 32, 12)   DRY( 32, 13)   DRY( 32, 14)   DRY( 32, 15)   DRY( 32, 16)   
    DRY( 32, 17)   DRY( 32, 18)   DRY( 32, 19)   DRY( 32, 20)   DRY( 32, 21)   
    DRY( 32, 22)   DRY( 32, 23)   DRY( 32, 24)   DRY( 32, 25)   DRY( 32, 26)   
    DRY( 32, 27)   DRY( 32, 28)   DRY( 32, 29)   DRY( 32, 30)   DRY( 32, 31)   
    DRY( 32, 32)   DRY( 32, 33)   DRY( 32, 34)   DRY( 32, 35)   DRY( 32, 36)   
    DRY( 32, 37)   DRY( 32, 38)   DRY( 32, 39)   DRY( 32, 40)   DRY( 32, 41)   
    DRY( 32, 42)   DRY( 32, 43)   DRY( 32, 44)   DRY( 32, 45)   DRY( 32, 46)   
    DRY( 32, 47)   DRY( 32, 48)   DRY( 32, 49)   DRY( 32, 50)   DRY( 32, 51)   
    DRY( 32, 52)   DRY( 32, 53)   DRY( 32, 54)   DRY( 32, 55)   DRY( 32, 56)   
    DRY( 32, 57)   DRY( 32, 58)   DRY( 32, 59)   DRY( 32, 60)   DRY( 32, 61)   
    DRY( 32, 62)   DRY( 32, 63)   DRY( 32, 64)   DRY( 32, 65)   DRY( 32, 66)   
    DRY( 32, 67)   DRY( 32, 68)   DRY( 32, 69)   DRY( 32, 70)   DRY( 32, 71)   
    DRY( 32, 72)   DRY( 32, 73)   DRY( 32, 74)   DRY( 32, 75)   DRY( 32, 76)   
    DRY( 32, 77)   DRY( 32, 78)   DRY( 32, 79)   DRY( 32, 80)   DRY( 32, 81)   
    DRY( 32, 82)   DRY( 32, 83)   DRY( 32, 84)   DRY( 32, 85)   DRY( 32, 86)   
    DRY( 32, 87)   DRY( 32, 88)   DRY( 32, 89)   DRY( 32, 90)   DRY( 32, 91)   
    DRY( 32, 92)   DRY( 32, 93)   DRY( 32, 94)   DRY( 32, 95)   DRY( 32, 96)   
    DRY( 32, 97)   DRY( 32, 98)   DRY( 32, 99)   DRY( 32,100)   DRY( 32,101)   
    DRY( 32,102)   DRY( 32,103)   DRY( 32,104)   DRY( 32,105)   DRY( 32,106)   
    DRY( 32,107)   DRY( 32,108)   DRY( 32,109)   DRY( 32,110)   DRY( 32,111)   
    DRY( 32,112)   DRY( 32,113)   DRY( 32,114)   DRY( 32,115)   DRY( 32,116)   
    DRY( 32,117)   DRY( 32,118)   DRY( 32,119)   DRY( 32,120)   DRY( 32,121)   
    DRY( 32,122)   DRY( 32,123)   DRY( 32,124)   DRY( 32,125)   DRY( 32,126)   
    DRY( 32,127)   DRY( 32,128)   DRY( 32,129)   DRY( 32,130)   DRY( 32,131)   
    DRY( 32,132)   DRY( 32,133)   DRY( 32,134)   DRY( 32,135)   DRY( 32,136)   
    DRY( 32,137)   DRY( 32,138)   DRY( 32,139)   DRY( 32,140)   DRY( 32,141)   
    DRY( 32,142)   DRY( 32,143)   DRY( 32,144)   DRY( 32,145)   DRY( 32,146)   
    DRY( 32,147)   DRY( 32,148)   DRY( 32,149)   DRY( 32,150)   DRY( 32,151)   
    DRY( 32,152)   DRY( 32,153)   DRY( 32,154)   DRY( 32,155)   DRY( 32,156)   
    DRY( 32,157)   DRY( 32,158)   DRY( 32,159)   DRY( 32,160)   DRY( 32,161)   
    DRY( 32,162)   DRY( 32,163)   DRY( 32,164)   DRY( 32,165)   DRY( 32,166)   
    DRY( 32,167)   DRY( 32,168)   DRY( 32,169)   DRY( 32,170)   DRY( 32,171)   
    DRY( 32,172)   DRY( 32,173)   DRY( 32,174)   DRY( 32,175)   DRY( 32,176)   
    DRY( 32,177)   DRY( 32,178)   DRY( 32,179)   DRY( 32,180)   DRY( 32,181)   
    DRY( 32,182)   DRY( 32,183)   DRY( 32,184)   DRY( 32,185)   DRY( 32,186)   
    DRY( 32,187)   DRY( 32,188)   DRY( 32,189)   DRY( 32,190)   DRY( 32,191)   
    DRY( 32,192)   DRY( 32,193)   DRY( 32,194)   DRY( 32,195)   DRY( 32,196)   
    DRY( 32,197)   DRY( 32,198)   DRY( 32,199)   DRY( 32,200)   DRY( 32,201)   
    DRY( 32,202)   DRY( 32,203)   DRY( 32,204)   DRY( 32,205)   DRY( 32,206)   
    DRY( 32,207)   DRY( 32,208)   DRY( 32,209)   DRY( 32,210)   DRY( 32,211)   
    DRY( 32,212)   DRY( 32,213)   DRY( 32,214)   DRY( 32,215)   DRY( 32,216)   
    DRY( 32,217)   DRY( 32,218)   DRY( 32,219)   DRY( 32,220)   DRY( 33,  1)   
    DRY( 33,  2)   DRY( 33,  3)   DRY( 33,  4)   DRY( 33,  5)   DRY( 33,  6)   
    DRY( 33,  7)   DRY( 33,  8)   DRY( 33,  9)   DRY( 33, 10)   DRY( 33, 11)   
    DRY( 33, 12)   DRY( 33, 13)   DRY( 33, 14)   DRY( 33, 15)   DRY( 33, 16)   
    DRY( 33, 17)   DRY( 33, 18)   DRY( 33, 19)   DRY( 33, 20)   DRY( 33, 21)   
    DRY( 33, 22)   DRY( 33, 23)   DRY( 33, 24)   DRY( 33, 25)   DRY( 33, 26)   
    DRY( 33, 27)   DRY( 33, 28)   DRY( 33, 29)   DRY( 33, 30)   DRY( 33, 31)   
    DRY( 33, 32)   DRY( 33, 33)   DRY( 33, 34)   DRY( 33, 35)   DRY( 33, 36)   
    DRY( 33, 37)   DRY( 33, 38)   DRY( 33, 39)   DRY( 33, 40)   DRY( 33, 41)   
    DRY( 33, 42)   DRY( 33, 43)   DRY( 33, 44)   DRY( 33, 45)   DRY( 33, 46)   
    DRY( 33, 47)   DRY( 33, 48)   DRY( 33, 49)   DRY( 33, 50)   DRY( 33, 51)   
    DRY( 33, 52)   DRY( 33, 53)   DRY( 33, 54)   DRY( 33, 55)   DRY( 33, 56)   
    DRY( 33, 57)   DRY( 33, 58)   DRY( 33, 59)   DRY( 33, 60)   DRY( 33, 61)   
    DRY( 33, 62)   DRY( 33, 63)   DRY( 33, 64)   DRY( 33, 65)   DRY( 33, 66)   
    DRY( 33, 67)   DRY( 33, 68)   DRY( 33, 69)   DRY( 33, 70)   DRY( 33, 71)   
    DRY( 33, 72)   DRY( 33, 73)   DRY( 33, 74)   DRY( 33, 75)   DRY( 33, 76)   
    DRY( 33, 77)   DRY( 33, 78)   DRY( 33, 79)   DRY( 33, 80)   DRY( 33, 81)   
    DRY( 33, 82)   DRY( 33, 83)   DRY( 33, 84)   DRY( 33, 85)   DRY( 33, 86)   
    DRY( 33, 87)   DRY( 33, 88)   DRY( 33, 89)   DRY( 33, 90)   DRY( 33, 91)   
    DRY( 33, 92)   DRY( 33, 93)   DRY( 33, 94)   DRY( 33, 95)   DRY( 33, 96)   
    DRY( 33, 97)   DRY( 33, 98)   DRY( 33, 99)   DRY( 33,100)   DRY( 33,101)   
    DRY( 33,102)   DRY( 33,103)   DRY( 33,104)   DRY( 33,105)   DRY( 33,106)   
    DRY( 33,107)   DRY( 33,108)   DRY( 33,109)   DRY( 33,110)   DRY( 33,111)   
    DRY( 33,112)   DRY( 33,113)   DRY( 33,114)   DRY( 33,115)   DRY( 33,116)   
    DRY( 33,117)   DRY( 33,118)   DRY( 33,119)   DRY( 33,120)   DRY( 33,121)   
    DRY( 33,122)   DRY( 33,123)   DRY( 33,124)   DRY( 33,125)   DRY( 33,126)   
    DRY( 33,127)   DRY( 33,128)   DRY( 33,129)   DRY( 33,130)   DRY( 33,131)   
    DRY( 33,132)   DRY( 33,133)   DRY( 33,134)   DRY( 33,135)   DRY( 33,136)   
    DRY( 33,137)   DRY( 33,138)   DRY( 33,139)   DRY( 33,140)   DRY( 33,141)   
    DRY( 33,142)   DRY( 33,143)   DRY( 33,144)   DRY( 33,145)   DRY( 33,146)   
    DRY( 33,147)   DRY( 33,148)   DRY( 33,149)   DRY( 33,150)   DRY( 33,151)   
    DRY( 33,152)   DRY( 33,153)   DRY( 33,154)   DRY( 33,155)   DRY( 33,156)   
    DRY( 33,157)   DRY( 33,158)   DRY( 33,159)   DRY( 33,160)   DRY( 33,161)   
    DRY( 33,162)   DRY( 33,163)   DRY( 33,164)   DRY( 33,165)   DRY( 33,166)   
    DRY( 33,167)   DRY( 33,168)   DRY( 33,169)   DRY( 33,170)   DRY( 33,171)   
    DRY( 33,172)   DRY( 33,173)   DRY( 33,174)   DRY( 33,175)   DRY( 33,176)   
    DRY( 33,177)   DRY( 33,178)   DRY( 33,179)   DRY( 33,180)   DRY( 33,181)   
    DRY( 33,182)   DRY( 33,183)   DRY( 33,184)   DRY( 33,185)   DRY( 33,186)   
    DRY( 33,187)   DRY( 33,188)   DRY( 33,189)   DRY( 33,190)   DRY( 33,191)   
    DRY( 33,192)   DRY( 33,193)   DRY( 33,194)   DRY( 33,195)   DRY( 33,196)   
    DRY( 33,197)   DRY( 33,198)   DRY( 33,199)   DRY( 33,200)   DRY( 33,201)   
    DRY( 33,202)   DRY( 33,203)   DRY( 33,204)   DRY( 33,205)   DRY( 33,206)   
    DRY( 33,207)   DRY( 33,208)   DRY( 33,209)   DRY( 33,210)   DRY( 33,211)   
    DRY( 33,212)   DRY( 33,213)   DRY( 33,214)   DRY( 33,215)   DRY( 33,216)   
    DRY( 33,217)   DRY( 33,218)   DRY( 33,219)   DRY( 33,220)   DRY( 34, 45)   
    DRY( 34, 46)   DRY( 34, 47)   DRY( 34, 48)   DRY( 34, 49)   DRY( 34, 50)   
    DRY( 34, 51)   DRY( 34, 52)   DRY( 34, 53)   DRY( 34, 54)   DRY( 34, 55)   
    DRY( 34, 56)   DRY( 34, 57)   DRY( 34, 58)   DRY( 34, 59)   DRY( 34, 60)   
    DRY( 34, 61)   DRY( 34, 62)   DRY( 34, 63)   DRY( 34, 64)   DRY( 34, 65)   
    DRY( 34, 66)   DRY( 34, 67)   DRY( 34, 68)   DRY( 34, 69)   DRY( 34, 70)   
    DRY( 34, 71)   DRY( 34, 72)   DRY( 34, 73)   DRY( 34, 74)   DRY( 34, 75)   
    DRY( 34, 76)   DRY( 34, 77)   DRY( 34, 78)   DRY( 34, 79)   DRY( 34, 80)   
    DRY( 34, 81)   DRY( 34, 82)   DRY( 34, 83)   DRY( 34, 84)   DRY( 34, 85)   
    DRY( 34, 86)   DRY( 34, 87)   DRY( 34, 88)   DRY( 34, 89)   DRY( 34, 90)   
    DRY( 34, 91)   DRY( 34, 92)   DRY( 34, 93)   DRY( 34, 94)   DRY( 34, 95)   
    DRY( 34, 96)   DRY( 34, 97)   DRY( 34, 98)   DRY( 34, 99)   DRY( 34,100)   
    DRY( 34,101)   DRY( 34,102)   DRY( 34,103)   DRY( 34,104)   DRY( 34,105)   
    DRY( 34,106)   DRY( 34,107)   DRY( 34,108)   DRY( 34,109)   DRY( 34,110)   
    DRY( 34,111)   DRY( 34,112)   DRY( 34,113)   DRY( 34,114)   DRY( 34,115)   
    DRY( 34,116)   DRY( 34,117)   DRY( 34,118)   DRY( 34,119)   DRY( 34,120)   
    DRY( 34,121)   DRY( 34,122)   DRY( 34,123)   DRY( 34,124)   DRY( 34,125)   
    DRY( 34,126)   DRY( 34,127)   DRY( 34,128)   DRY( 34,129)   DRY( 34,130)   
    DRY( 34,131)   DRY( 34,132)   DRY( 34,133)   DRY( 34,134)   DRY( 34,135)   
    DRY( 34,136)   DRY( 34,137)   DRY( 34,138)   DRY( 34,139)   DRY( 34,140)   
    DRY( 34,141)   DRY( 34,142)   DRY( 34,143)   DRY( 34,144)   DRY( 34,145)   
    DRY( 34,146)   DRY( 34,147)   DRY( 34,148)   DRY( 34,149)   DRY( 34,150)   
    DRY( 34,151)   DRY( 34,152)   DRY( 34,153)   DRY( 34,154)   DRY( 34,155)   
    DRY( 34,156)   DRY( 34,157)   DRY( 34,158)   DRY( 34,159)   DRY( 34,160)   
    DRY( 34,161)   DRY( 34,162)   DRY( 34,163)   DRY( 34,164)   DRY( 34,165)   
    DRY( 34,166)   DRY( 34,167)   DRY( 34,168)   DRY( 34,169)   DRY( 34,170)   
    DRY( 34,171)   DRY( 34,172)   DRY( 34,173)   DRY( 34,174)   DRY( 34,175)   
    DRY( 34,176)   DRY( 34,177)   DRY( 34,178)   DRY( 34,179)   DRY( 34,180)   
    DRY( 34,181)   DRY( 34,182)   DRY( 34,183)   DRY( 34,184)   DRY( 34,185)   
    DRY( 34,186)   DRY( 34,187)   DRY( 34,188)   DRY( 34,189)   DRY( 34,190)   
    DRY( 34,191)   DRY( 34,192)   DRY( 34,193)   DRY( 34,194)   DRY( 34,195)   
    DRY( 34,196)   DRY( 34,197)   DRY( 34,198)   DRY( 34,199)   DRY( 34,200)   
    DRY( 34,201)   DRY( 34,202)   DRY( 34,203)   DRY( 34,204)   DRY( 34,205)   
    DRY( 34,206)   DRY( 34,207)   DRY( 34,208)   DRY( 34,209)   DRY( 34,210)   
    DRY( 34,211)   DRY( 34,212)   DRY( 34,213)   DRY( 34,214)   DRY( 34,215)   
    DRY( 34,216)   DRY( 34,217)   DRY( 34,218)   DRY( 34,219)   DRY( 34,220)   
    DRY( 35,212)   DRY( 35,213)   DRY( 35,214)   DRY( 35,215)   DRY( 35,216)   
    DRY( 35,217)   DRY( 35,218)   DRY( 35,219)   DRY( 35,220)   

 CELL CONVERSIONS FOR ITER.=  4  LAYER= 17  STEP=  1  PERIOD=   1   (ROW,COL)
    DRY( 34,  1)   DRY( 34,  2)   DRY( 34,  3)   DRY( 34,  4)   DRY( 34,  5)   
    DRY( 34,  6)   DRY( 34,  7)   DRY( 34,  8)   DRY( 34,  9)   DRY( 34, 10)   
    DRY( 34, 11)   DRY( 34, 12)   DRY( 34, 13)   DRY( 34, 14)   DRY( 34, 15)   
    DRY( 34, 16)   DRY( 34, 17)   DRY( 34, 18)   DRY( 34, 19)   DRY( 34, 20)   
    DRY( 34, 21)   DRY( 34, 22)   DRY( 34, 23)   DRY( 34, 24)   DRY( 34, 25)   
    DRY( 34, 26)   DRY( 34, 27)   DRY( 34, 28)   DRY( 34, 29)   DRY( 34, 30)   
    DRY( 34, 31)   DRY( 34, 32)   DRY( 34, 33)   DRY( 34, 34)   DRY( 34, 35)   
    DRY( 34, 36)   DRY( 34, 37)   DRY( 34, 38)   DRY( 34, 39)   DRY( 34, 40)   
    DRY( 34, 41)   DRY( 34, 42)   DRY( 34, 43)   DRY( 34, 44)   DRY( 34, 45)   
    DRY( 34, 46)   DRY( 34, 47)   DRY( 34, 48)   DRY( 34, 49)   DRY( 34, 50)   
    DRY( 34, 51)   DRY( 34, 52)   DRY( 34, 53)   DRY( 34, 54)   DRY( 34, 55)   
    DRY( 34, 56)   DRY( 34, 57)   DRY( 34, 58)   DRY( 34, 59)   DRY( 34, 60)   
    DRY( 34, 61)   DRY( 34, 62)   DRY( 34, 63)   DRY( 34, 64)   DRY( 34, 65)   
    DRY( 34, 66)   DRY( 34, 67)   DRY( 34, 68)   DRY( 34, 69)   DRY( 34, 70)   
    DRY( 34, 71)   DRY( 34, 72)   DRY( 34, 73)   DRY( 34, 74)   DRY( 34, 75)   
    DRY( 34, 76)   DRY( 34, 77)   DRY( 34, 78)   DRY( 34, 79)   DRY( 34, 80)   
    DRY( 34, 81)   DRY( 34, 82)   DRY( 34, 83)   DRY( 34, 84)   DRY( 34, 85)   
    DRY( 34, 86)   DRY( 34, 87)   DRY( 34, 88)   DRY( 34, 89)   DRY( 34, 90)   
    DRY( 34, 91)   DRY( 34, 92)   DRY( 34, 93)   DRY( 34, 94)   DRY( 34, 95)   
    DRY( 34, 96)   DRY( 34, 97)   DRY( 34, 98)   DRY( 34, 99)   DRY( 34,100)   
    DRY( 34,101)   DRY( 34,102)   DRY( 34,103)   DRY( 34,104)   DRY( 34,105)   
    DRY( 34,106)   DRY( 34,107)   DRY( 34,108)   DRY( 34,109)   DRY( 34,110)   
    DRY( 34,111)   DRY( 34,112)   DRY( 34,113)   DRY( 34,114)   DRY( 34,115)   
    DRY( 34,116)   DRY( 34,117)   DRY( 34,118)   DRY( 34,119)   DRY( 34,120)   
    DRY( 34,121)   DRY( 34,122)   DRY( 34,123)   DRY( 34,124)   DRY( 34,125)   
    DRY( 34,126)   DRY( 34,127)   DRY( 34,128)   DRY( 34,129)   DRY( 34,130)   
    DRY( 34,131)   DRY( 34,132)   DRY( 34,133)   DRY( 34,134)   DRY( 34,135)   
    DRY( 34,136)   DRY( 34,137)   DRY( 34,138)   DRY( 34,139)   DRY( 34,140)   
    DRY( 34,141)   DRY( 34,142)   DRY( 34,143)   DRY( 34,144)   DRY( 34,145)   
    DRY( 34,146)   DRY( 34,147)   DRY( 34,148)   DRY( 34,149)   DRY( 34,150)   
    DRY( 34,151)   DRY( 34,152)   DRY( 34,153)   DRY( 34,154)   DRY( 34,155)   
    DRY( 34,156)   DRY( 34,157)   DRY( 34,158)   DRY( 34,159)   DRY( 34,160)   
    DRY( 34,161)   DRY( 34,162)   DRY( 34,163)   DRY( 34,164)   DRY( 34,165)   
    DRY( 34,166)   DRY( 34,167)   DRY( 34,168)   DRY( 34,169)   DRY( 34,170)   
    DRY( 34,171)   DRY( 34,172)   DRY( 34,173)   DRY( 34,174)   DRY( 34,175)   
    DRY( 34,176)   DRY( 34,177)   DRY( 34,178)   DRY( 34,179)   DRY( 34,180)   
    DRY( 34,181)   DRY( 34,182)   DRY( 34,183)   DRY( 34,184)   DRY( 34,185)   
    DRY( 34,186)   DRY( 34,187)   DRY( 34,188)   DRY( 34,189)   DRY( 34,190)   
    DRY( 34,191)   DRY( 34,192)   DRY( 34,193)   DRY( 34,194)   DRY( 34,195)   
    DRY( 34,196)   DRY( 34,197)   DRY( 34,198)   DRY( 34,199)   DRY( 34,200)   
    DRY( 34,201)   DRY( 34,202)   DRY( 34,203)   DRY( 34,204)   DRY( 34,205)   
    DRY( 34,206)   DRY( 34,207)   DRY( 34,208)   DRY( 34,209)   DRY( 34,210)   
    DRY( 34,211)   DRY( 35,  1)   DRY( 35,  2)   DRY( 35,  3)   DRY( 35,  4)   
    DRY( 35,  5)   DRY( 35,  6)   DRY( 35,  7)   DRY( 35,  8)   DRY( 35,  9)   
    DRY( 35, 10)   DRY( 35, 11)   DRY( 35, 12)   DRY( 35, 13)   DRY( 35, 14)   
    DRY( 35, 15)   DRY( 35, 16)   DRY( 35, 17)   DRY( 35, 18)   DRY( 35, 19)   
    DRY( 35, 20)   DRY( 35, 21)   DRY( 35, 22)   DRY( 35, 23)   DRY( 35, 24)   
    DRY( 35, 25)   DRY( 35, 26)   DRY( 35, 27)   DRY( 35, 28)   DRY( 35, 29)   
    DRY( 35, 30)   DRY( 35, 31)   DRY( 35, 32)   DRY( 35, 33)   DRY( 35, 34)   
    DRY( 35, 35)   DRY( 35, 36)   DRY( 35, 37)   DRY( 35, 38)   DRY( 35, 39)   
    DRY( 35, 40)   DRY( 35, 41)   DRY( 35, 42)   DRY( 35, 43)   DRY( 35, 44)   
    DRY( 35, 45)   DRY( 35, 46)   DRY( 35, 47)   DRY( 35, 48)   DRY( 35, 49)   
    DRY( 35, 50)   DRY( 35, 51)   DRY( 35, 52)   DRY( 35, 53)   DRY( 35, 54)   
    DRY( 35, 55)   DRY( 35, 56)   DRY( 35, 57)   DRY( 35, 58)   DRY( 35, 59)   
    DRY( 35, 60)   DRY( 35, 61)   DRY( 35, 62)   DRY( 35, 63)   DRY( 35, 64)   
    DRY( 35, 65)   DRY( 35, 66)   DRY( 35, 67)   DRY( 35, 68)   DRY( 35, 69)   
    DRY( 35, 70)   DRY( 35, 71)   DRY( 35, 72)   DRY( 35, 73)   DRY( 35, 74)   
    DRY( 35, 75)   DRY( 35, 76)   DRY( 35, 77)   DRY( 35, 78)   DRY( 35, 79)   
    DRY( 35, 80)   DRY( 35, 81)   DRY( 35, 82)   DRY( 35, 83)   DRY( 35, 84)   
    DRY( 35, 85)   DRY( 35, 86)   DRY( 35, 87)   DRY( 35, 88)   DRY( 35, 89)   
    DRY( 35, 90)   DRY( 35, 91)   DRY( 35, 92)   DRY( 35, 93)   DRY( 35, 94)   
    DRY( 35, 95)   DRY( 35, 96)   DRY( 35, 97)   DRY( 35, 98)   DRY( 35, 99)   
    DRY( 35,100)   DRY( 35,101)   DRY( 35,102)   DRY( 35,103)   DRY( 35,104)   
    DRY( 35,105)   DRY( 35,106)   DRY( 35,107)   DRY( 35,108)   DRY( 35,109)   
    DRY( 35,110)   DRY( 35,111)   DRY( 35,112)   DRY( 35,113)   DRY( 35,114)   
    DRY( 35,115)   DRY( 35,116)   DRY( 35,117)   DRY( 35,118)   DRY( 35,119)   
    DRY( 35,120)   DRY( 35,121)   DRY( 35,122)   DRY( 35,123)   DRY( 35,124)   
    DRY( 35,125)   DRY( 35,126)   DRY( 35,127)   DRY( 35,128)   DRY( 35,129)   
    DRY( 35,130)   DRY( 35,131)   DRY( 35,132)   DRY( 35,133)   DRY( 35,134)   
    DRY( 35,135)   DRY( 35,136)   DRY( 35,137)   DRY( 35,138)   DRY( 35,139)   
    DRY( 35,140)   DRY( 35,141)   DRY( 35,142)   DRY( 35,143)   DRY( 35,144)   
    DRY( 35,145)   DRY( 35,146)   DRY( 35,147)   DRY( 35,148)   DRY( 35,149)   
    DRY( 35,150)   DRY( 35,151)   DRY( 35,152)   DRY( 35,153)   DRY( 35,154)   
    DRY( 35,155)   DRY( 35,156)   DRY( 35,157)   DRY( 35,158)   DRY( 35,159)   
    DRY( 35,160)   DRY( 35,161)   DRY( 35,162)   DRY( 35,163)   DRY( 35,164)   
    DRY( 35,165)   DRY( 35,166)   DRY( 35,167)   DRY( 35,168)   DRY( 35,169)   
    DRY( 35,170)   DRY( 35,171)   DRY( 35,172)   DRY( 35,173)   DRY( 35,174)   
    DRY( 35,175)   DRY( 35,176)   DRY( 35,177)   DRY( 35,178)   DRY( 35,179)   
    DRY( 35,180)   DRY( 35,181)   DRY( 35,182)   DRY( 35,183)   DRY( 35,184)   
    DRY( 35,185)   DRY( 35,186)   DRY( 35,187)   DRY( 35,188)   DRY( 35,189)   
    DRY( 35,190)   DRY( 35,191)   DRY( 35,192)   DRY( 35,193)   DRY( 35,194)   
    DRY( 35,195)   DRY( 35,196)   DRY( 35,197)   DRY( 35,198)   DRY( 35,199)   
    DRY( 35,200)   DRY( 35,201)   DRY( 35,202)   DRY( 35,203)   DRY( 35,204)   
    DRY( 35,205)   DRY( 35,206)   DRY( 35,207)   DRY( 35,208)   DRY( 35,209)   
    DRY( 35,210)   DRY( 35,211)   DRY( 35,212)   DRY( 35,213)   DRY( 35,214)   
    DRY( 35,215)   DRY( 35,216)   DRY( 35,217)   DRY( 35,218)   DRY( 35,219)   
    DRY( 35,220)   DRY( 36,  1)   DRY( 36,  2)   DRY( 36,  3)   DRY( 36,  4)   
    DRY( 36,  5)   DRY( 36,  6)   DRY( 36,  7)   DRY( 36,  8)   DRY( 36,  9)   
    DRY( 36, 10)   DRY( 36, 11)   DRY( 36, 12)   DRY( 36, 13)   DRY( 36, 14)   
    DRY( 36, 15)   DRY( 36, 16)   DRY( 36, 17)   DRY( 36, 18)   DRY( 36, 19)   
    DRY( 36, 20)   DRY( 36, 21)   DRY( 36, 22)   DRY( 36, 23)   DRY( 36, 24)   
    DRY( 36, 25)   DRY( 36, 26)   DRY( 36, 27)   DRY( 36, 28)   DRY( 36, 29)   
    DRY( 36, 30)   DRY( 36, 31)   DRY( 36, 32)   DRY( 36, 33)   DRY( 36, 34)   
    DRY( 36, 35)   DRY( 36, 36)   DRY( 36, 37)   DRY( 36, 38)   DRY( 36, 39)   
    DRY( 36, 40)   DRY( 36, 41)   DRY( 36, 42)   DRY( 36, 43)   DRY( 36, 44)   
    DRY( 36, 45)   DRY( 36, 46)   DRY( 36, 47)   DRY( 36, 48)   DRY( 36, 49)   
    DRY( 36, 50)   DRY( 36, 51)   DRY( 36, 52)   DRY( 36, 53)   DRY( 36, 54)   
    DRY( 36, 55)   DRY( 36, 56)   DRY( 36, 57)   DRY( 36, 58)   DRY( 36, 59)   
    DRY( 36, 60)   DRY( 36, 61)   DRY( 36, 62)   DRY( 36, 63)   DRY( 36, 64)   
    DRY( 36, 65)   DRY( 36, 66)   DRY( 36, 67)   DRY( 36, 68)   DRY( 36, 69)   
    DRY( 36, 70)   DRY( 36, 71)   DRY( 36, 72)   DRY( 36, 73)   DRY( 36, 74)   
    DRY( 36, 75)   DRY( 36, 76)   DRY( 36, 77)   DRY( 36, 78)   DRY( 36, 79)   
    DRY( 36, 80)   DRY( 36, 81)   DRY( 36, 82)   DRY( 36, 83)   DRY( 36, 84)   
    DRY( 36, 85)   DRY( 36, 86)   DRY( 36, 87)   DRY( 36, 88)   DRY( 36, 89)   
    DRY( 36, 90)   DRY( 36, 91)   DRY( 36, 92)   DRY( 36, 93)   DRY( 36, 94)   
    DRY( 36, 95)   DRY( 36, 96)   DRY( 36, 97)   DRY( 36, 98)   DRY( 36, 99)   
    DRY( 36,100)   DRY( 36,101)   DRY( 36,102)   DRY( 36,103)   DRY( 36,104)   
    DRY( 36,105)   DRY( 36,106)   DRY( 36,107)   DRY( 36,108)   DRY( 36,109)   
    DRY( 36,110)   DRY( 36,111)   DRY( 36,112)   DRY( 36,113)   DRY( 36,114)   
    DRY( 36,115)   DRY( 36,116)   DRY( 36,117)   DRY( 36,118)   DRY( 36,119)   
    DRY( 36,120)   DRY( 36,121)   DRY( 36,122)   DRY( 36,123)   DRY( 36,124)   
    DRY( 36,125)   DRY( 36,126)   DRY( 36,127)   DRY( 36,128)   DRY( 36,129)   
    DRY( 36,130)   DRY( 36,131)   DRY( 36,132)   DRY( 36,133)   DRY( 36,134)   
    DRY( 36,135)   DRY( 36,136)   DRY( 36,137)   DRY( 36,138)   DRY( 36,139)   
    DRY( 36,140)   DRY( 36,141)   DRY( 36,142)   DRY( 36,143)   DRY( 36,144)   
    DRY( 36,145)   DRY( 36,146)   DRY( 36,147)   DRY( 36,148)   DRY( 36,149)   
    DRY( 36,150)   DRY( 36,151)   DRY( 36,152)   DRY( 36,153)   DRY( 36,154)   
    DRY( 36,155)   DRY( 36,156)   DRY( 36,157)   DRY( 36,158)   DRY( 36,159)   
    DRY( 36,160)   DRY( 36,161)   DRY( 36,162)   DRY( 36,163)   DRY( 36,164)   
    DRY( 36,165)   DRY( 36,166)   DRY( 36,167)   DRY( 36,168)   DRY( 36,169)   
    DRY( 36,170)   DRY( 36,171)   DRY( 36,172)   DRY( 36,173)   DRY( 36,174)   
    DRY( 36,175)   DRY( 36,176)   DRY( 36,177)   DRY( 36,178)   DRY( 36,179)   
    DRY( 36,180)   DRY( 36,181)   DRY( 36,182)   DRY( 36,183)   DRY( 36,184)   
    DRY( 36,185)   DRY( 36,186)   DRY( 36,187)   DRY( 36,188)   DRY( 36,189)   
    DRY( 36,190)   DRY( 36,191)   DRY( 36,192)   DRY( 36,193)   DRY( 36,194)   
    DRY( 36,195)   DRY( 36,196)   DRY( 36,197)   DRY( 36,198)   DRY( 36,199)   
    DRY( 36,200)   DRY( 36,201)   DRY( 36,202)   DRY( 36,203)   DRY( 36,204)   
    DRY( 36,205)   DRY( 36,206)   DRY( 36,207)   DRY( 36,208)   DRY( 36,209)   
    DRY( 36,210)   DRY( 36,211)   DRY( 36,212)   DRY( 36,213)   DRY( 36,214)   
    DRY( 36,215)   DRY( 36,216)   DRY( 36,217)   DRY( 36,218)   DRY( 36,219)   
    DRY( 36,220)   DRY( 37,  4)   DRY( 37,  5)   DRY( 37,  6)   DRY( 37,  7)   
    DRY( 37,  8)   DRY( 37,  9)   DRY( 37, 10)   DRY( 37, 11)   DRY( 37, 12)   
    DRY( 37, 13)   DRY( 37, 14)   DRY( 37, 15)   DRY( 37, 16)   DRY( 37, 17)   
    DRY( 37, 18)   DRY( 37, 19)   DRY( 37, 20)   DRY( 37, 21)   DRY( 37, 22)   
    DRY( 37, 23)   DRY( 37, 24)   DRY( 37, 25)   DRY( 37, 26)   DRY( 37, 27)   
    DRY( 37, 28)   DRY( 37, 29)   DRY( 37, 30)   DRY( 37, 31)   DRY( 37, 32)   
    DRY( 37, 33)   DRY( 37, 34)   DRY( 37, 35)   DRY( 37, 36)   DRY( 37, 37)   
    DRY( 37, 38)   DRY( 37, 39)   DRY( 37, 40)   DRY( 37, 41)   DRY( 37, 42)   
    DRY( 37, 43)   DRY( 37, 44)   DRY( 37, 45)   DRY( 37, 46)   DRY( 37, 47)   
    DRY( 37, 48)   DRY( 37, 49)   DRY( 37, 50)   DRY( 37, 51)   DRY( 37, 52)   
    DRY( 37, 53)   DRY( 37, 54)   DRY( 37, 55)   DRY( 37, 56)   DRY( 37, 57)   
    DRY( 37, 58)   DRY( 37, 59)   DRY( 37, 60)   DRY( 37, 61)   DRY( 37, 62)   
    DRY( 37, 63)   DRY( 37, 64)   DRY( 37, 65)   DRY( 37, 66)   DRY( 37, 67)   
    DRY( 37, 68)   DRY( 37, 69)   DRY( 37, 70)   DRY( 37, 71)   DRY( 37, 72)   
    DRY( 37, 73)   DRY( 37, 74)   DRY( 37, 75)   DRY( 37, 76)   DRY( 37, 77)   
    DRY( 37, 78)   DRY( 37, 79)   DRY( 37, 80)   DRY( 37, 81)   DRY( 37, 82)   
    DRY( 37, 83)   DRY( 37, 84)   DRY( 37, 85)   DRY( 37, 86)   DRY( 37, 87)   
    DRY( 37, 88)   DRY( 37, 89)   DRY( 37, 90)   DRY( 37, 91)   DRY( 37, 92)   
    DRY( 37, 93)   DRY( 37, 94)   DRY( 37, 95)   DRY( 37, 96)   DRY( 37, 97)   
    DRY( 37, 98)   DRY( 37, 99)   DRY( 37,100)   DRY( 37,101)   DRY( 37,102)   
    DRY( 37,103)   DRY( 37,104)   DRY( 37,105)   DRY( 37,106)   DRY( 37,107)   
    DRY( 37,108)   DRY( 37,109)   DRY( 37,110)   DRY( 37,111)   DRY( 37,112)   
    DRY( 37,113)   DRY( 37,114)   DRY( 37,115)   DRY( 37,116)   DRY( 37,117)   
    DRY( 37,118)   DRY( 37,119)   DRY( 37,120)   DRY( 37,121)   DRY( 37,122)   
    DRY( 37,123)   DRY( 37,124)   DRY( 37,125)   DRY( 37,126)   DRY( 37,127)   
    DRY( 37,128)   DRY( 37,129)   DRY( 37,130)   DRY( 37,131)   DRY( 37,132)   
    DRY( 37,133)   DRY( 37,134)   DRY( 37,135)   DRY( 37,136)   DRY( 37,137)   
    DRY( 37,138)   DRY( 37,139)   DRY( 37,140)   DRY( 37,141)   DRY( 37,142)   
    DRY( 37,143)   DRY( 37,144)   DRY( 37,145)   DRY( 37,146)   DRY( 37,147)   
    DRY( 37,148)   DRY( 37,149)   DRY( 37,150)   DRY( 37,151)   DRY( 37,152)   
    DRY( 37,153)   DRY( 37,154)   DRY( 37,155)   DRY( 37,156)   DRY( 37,157)   
    DRY( 37,158)   DRY( 37,159)   DRY( 37,160)   DRY( 37,161)   DRY( 37,162)   
    DRY( 37,163)   DRY( 37,164)   DRY( 37,165)   DRY( 37,166)   DRY( 37,167)   
    DRY( 37,168)   DRY( 37,169)   DRY( 37,170)   DRY( 37,171)   DRY( 37,172)   
    DRY( 37,173)   DRY( 37,174)   DRY( 37,175)   DRY( 37,176)   DRY( 37,177)   
    DRY( 37,178)   DRY( 37,179)   DRY( 37,180)   DRY( 37,181)   DRY( 37,182)   
    DRY( 37,183)   DRY( 37,184)   DRY( 37,185)   DRY( 37,186)   DRY( 37,187)   
    DRY( 37,188)   DRY( 37,189)   DRY( 37,190)   DRY( 37,191)   DRY( 37,192)   
    DRY( 37,193)   DRY( 37,194)   DRY( 37,195)   DRY( 37,196)   DRY( 37,197)   
    DRY( 37,198)   DRY( 37,199)   DRY( 37,200)   DRY( 37,201)   DRY( 37,202)   
    DRY( 37,203)   DRY( 37,204)   DRY( 37,205)   DRY( 37,206)   DRY( 37,207)   
    DRY( 37,208)   DRY( 37,209)   DRY( 37,210)   DRY( 37,211)   DRY( 37,212)   
    DRY( 37,213)   DRY( 37,214)   DRY( 37,215)   DRY( 37,216)   DRY( 37,217)   
    DRY( 37,218)   DRY( 37,219)   DRY( 37,220)   DRY( 38, 93)   DRY( 38, 94)   
    DRY( 38, 95)   DRY( 38, 96)   DRY( 38, 97)   DRY( 38, 98)   DRY( 38, 99)   
    DRY( 38,100)   DRY( 38,101)   DRY( 38,102)   DRY( 38,103)   DRY( 38,104)   
    DRY( 38,105)   DRY( 38,106)   DRY( 38,107)   DRY( 38,108)   DRY( 38,109)   
    DRY( 38,110)   DRY( 38,111)   DRY( 38,112)   DRY( 38,113)   DRY( 38,114)   
    DRY( 38,115)   DRY( 38,116)   DRY( 38,117)   DRY( 38,118)   DRY( 38,119)   
    DRY( 38,120)   DRY( 38,121)   DRY( 38,122)   DRY( 38,123)   DRY( 38,124)   
    DRY( 38,125)   DRY( 38,126)   DRY( 38,127)   DRY( 38,128)   DRY( 38,129)   
    DRY( 38,130)   DRY( 38,131)   DRY( 38,132)   DRY( 38,133)   DRY( 38,134)   
    DRY( 38,135)   DRY( 38,136)   DRY( 38,137)   DRY( 38,138)   DRY( 38,139)   
    DRY( 38,140)   DRY( 38,141)   DRY( 38,142)   DRY( 38,143)   DRY( 38,144)   
    DRY( 38,145)   DRY( 38,146)   DRY( 38,147)   DRY( 38,148)   DRY( 38,149)   
    DRY( 38,150)   DRY( 38,151)   DRY( 38,152)   DRY( 38,153)   DRY( 38,154)   
    DRY( 38,155)   DRY( 38,156)   DRY( 38,157)   DRY( 38,158)   DRY( 38,159)   
    DRY( 38,160)   DRY( 38,161)   DRY( 38,162)   DRY( 38,163)   DRY( 38,164)   
    DRY( 38,165)   DRY( 38,166)   DRY( 38,167)   DRY( 38,168)   DRY( 38,169)   
    DRY( 38,170)   DRY( 38,171)   DRY( 38,172)   DRY( 38,173)   DRY( 38,174)   
    DRY( 38,175)   DRY( 38,176)   DRY( 38,177)   DRY( 38,178)   DRY( 38,179)   
    DRY( 38,180)   DRY( 38,181)   DRY( 38,182)   DRY( 38,183)   DRY( 38,184)   
    DRY( 38,185)   DRY( 38,186)   DRY( 38,187)   DRY( 38,188)   DRY( 38,189)   
    DRY( 38,190)   DRY( 38,191)   DRY( 38,192)   DRY( 38,193)   DRY( 38,194)   
    DRY( 38,195)   DRY( 38,196)   DRY( 38,197)   DRY( 38,198)   DRY( 38,199)   
    DRY( 38,200)   DRY( 38,201)   DRY( 38,202)   DRY( 38,203)   DRY( 38,204)   
    DRY( 38,205)   DRY( 38,206)   DRY( 38,207)   DRY( 38,208)   DRY( 38,209)   
    DRY( 38,210)   DRY( 38,211)   DRY( 38,212)   DRY( 38,213)   DRY( 38,214)   
    DRY( 38,215)   DRY( 38,216)   DRY( 38,217)   DRY( 38,218)   DRY( 38,219)   
    DRY( 38,220)   DRY( 39,214)   DRY( 39,215)   DRY( 39,216)   DRY( 39,217)   
    DRY( 39,218)   DRY( 39,219)   DRY( 39,220)   

 CELL CONVERSIONS FOR ITER.=  4  LAYER= 18  STEP=  1  PERIOD=   1   (ROW,COL)
    DRY( 37,  1)   DRY( 37,  2)   DRY( 37,  3)   DRY( 37,  4)   DRY( 37,  5)   
    DRY( 37,  6)   DRY( 37,  7)   DRY( 37,  8)   DRY( 37,  9)   DRY( 37, 10)   
    DRY( 37, 11)   DRY( 37, 12)   DRY( 37, 13)   DRY( 37, 14)   DRY( 37, 15)   
    DRY( 37, 16)   DRY( 37, 17)   DRY( 37, 18)   DRY( 37, 19)   DRY( 37, 20)   
    DRY( 37, 21)   DRY( 37, 22)   DRY( 37, 23)   DRY( 37, 24)   DRY( 37, 25)   
    DRY( 37, 26)   DRY( 37, 27)   DRY( 37, 28)   DRY( 37, 29)   DRY( 37, 30)   
    DRY( 37, 31)   DRY( 37, 32)   DRY( 37, 33)   DRY( 37, 34)   DRY( 37, 35)   
    DRY( 37, 36)   DRY( 37, 37)   DRY( 37, 38)   DRY( 37, 39)   DRY( 37, 40)   
    DRY( 37, 41)   DRY( 37, 42)   DRY( 37, 43)   DRY( 37, 44)   DRY( 37, 45)   
    DRY( 37, 46)   DRY( 37, 47)   DRY( 37, 48)   DRY( 37, 49)   DRY( 37, 50)   
    DRY( 37, 51)   DRY( 37, 52)   DRY( 37, 53)   DRY( 37, 54)   DRY( 37, 55)   
    DRY( 37, 56)   DRY( 37, 57)   DRY( 37, 58)   DRY( 37, 59)   DRY( 37, 60)   
    DRY( 37, 61)   DRY( 37, 62)   DRY( 37, 63)   DRY( 37, 64)   DRY( 37, 65)   
    DRY( 37, 66)   DRY( 37, 67)   DRY( 37, 68)   DRY( 37, 69)   DRY( 37, 70)   
    DRY( 37, 71)   DRY( 37, 72)   DRY( 37, 73)   DRY( 37, 74)   DRY( 37, 75)   
    DRY( 37, 76)   DRY( 37, 77)   DRY( 37, 78)   DRY( 37, 79)   DRY( 37, 80)   
    DRY( 37, 81)   DRY( 37, 82)   DRY( 37, 83)   DRY( 37, 84)   DRY( 37, 85)   
    DRY( 37, 86)   DRY( 37, 87)   DRY( 37, 88)   DRY( 37, 89)   DRY( 37, 90)   
    DRY( 37, 91)   DRY( 37, 92)   DRY( 37, 93)   DRY( 37, 94)   DRY( 37, 95)   
    DRY( 37, 96)   DRY( 37, 97)   DRY( 37, 98)   DRY( 37, 99)   DRY( 37,100)   
    DRY( 37,101)   DRY( 37,102)   DRY( 37,103)   DRY( 37,104)   DRY( 37,105)   
    DRY( 37,106)   DRY( 37,107)   DRY( 37,108)   DRY( 37,109)   DRY( 37,110)   
    DRY( 37,111)   DRY( 37,112)   DRY( 37,113)   DRY( 37,114)   DRY( 37,115)   
    DRY( 37,116)   DRY( 37,117)   DRY( 37,118)   DRY( 37,119)   DRY( 37,120)   
    DRY( 37,121)   DRY( 37,122)   DRY( 37,123)   DRY( 37,124)   DRY( 37,125)   
    DRY( 37,126)   DRY( 37,127)   DRY( 37,128)   DRY( 37,129)   DRY( 37,130)   
    DRY( 37,131)   DRY( 37,132)   DRY( 37,133)   DRY( 37,134)   DRY( 37,135)   
    DRY( 37,136)   DRY( 37,137)   DRY( 37,138)   DRY( 37,139)   DRY( 37,140)   
    DRY( 37,141)   DRY( 37,142)   DRY( 37,143)   DRY( 37,144)   DRY( 37,145)   
    DRY( 37,146)   DRY( 37,147)   DRY( 37,148)   DRY( 37,149)   DRY( 37,150)   
    DRY( 37,151)   DRY( 37,152)   DRY( 37,153)   DRY( 37,154)   DRY( 37,155)   
    DRY( 37,156)   DRY( 37,157)   DRY( 37,158)   DRY( 37,159)   DRY( 37,160)   
    DRY( 37,161)   DRY( 37,162)   DRY( 37,163)   DRY( 37,164)   DRY( 37,165)   
    DRY( 37,166)   DRY( 37,167)   DRY( 37,168)   DRY( 37,169)   DRY( 37,170)   
    DRY( 37,171)   DRY( 37,172)   DRY( 37,173)   DRY( 37,174)   DRY( 37,175)   
    DRY( 37,176)   DRY( 37,177)   DRY( 37,178)   DRY( 37,179)   DRY( 37,180)   
    DRY( 37,181)   DRY( 37,182)   DRY( 37,183)   DRY( 37,184)   DRY( 37,185)   
    DRY( 37,186)   DRY( 37,187)   DRY( 37,188)   DRY( 37,189)   DRY( 37,190)   
    DRY( 37,191)   DRY( 37,192)   DRY( 37,193)   DRY( 37,194)   DRY( 37,195)   
    DRY( 37,196)   DRY( 37,197)   DRY( 37,198)   DRY( 37,199)   DRY( 37,200)   
    DRY( 37,201)   DRY( 37,202)   DRY( 37,203)   DRY( 37,204)   DRY( 37,205)   
    DRY( 37,206)   DRY( 37,207)   DRY( 37,208)   DRY( 37,209)   DRY( 38,  1)   
    DRY( 38,  2)   DRY( 38,  3)   DRY( 38,  4)   DRY( 38,  5)   DRY( 38,  6)   
    DRY( 38,  7)   DRY( 38,  8)   DRY( 38,  9)   DRY( 38, 10)   DRY( 38, 11)   
    DRY( 38, 12)   DRY( 38, 13)   DRY( 38, 14)   DRY( 38, 15)   DRY( 38, 16)   
    DRY( 38, 17)   DRY( 38, 18)   DRY( 38, 19)   DRY( 38, 20)   DRY( 38, 21)   
    DRY( 38, 22)   DRY( 38, 23)   DRY( 38, 24)   DRY( 38, 25)   DRY( 38, 26)   
    DRY( 38, 27)   DRY( 38, 28)   DRY( 38, 29)   DRY( 38, 30)   DRY( 38, 31)   
    DRY( 38, 32)   DRY( 38, 33)   DRY( 38, 34)   DRY( 38, 35)   DRY( 38, 36)   
    DRY( 38, 37)   DRY( 38, 38)   DRY( 38, 39)   DRY( 38, 40)   DRY( 38, 41)   
    DRY( 38, 42)   DRY( 38, 43)   DRY( 38, 44)   DRY( 38, 45)   DRY( 38, 46)   
    DRY( 38, 47)   DRY( 38, 48)   DRY( 38, 49)   DRY( 38, 50)   DRY( 38, 51)   
    DRY( 38, 52)   DRY( 38, 53)   DRY( 38, 54)   DRY( 38, 55)   DRY( 38, 56)   
    DRY( 38, 57)   DRY( 38, 58)   DRY( 38, 59)   DRY( 38, 60)   DRY( 38, 61)   
    DRY( 38, 62)   DRY( 38, 63)   DRY( 38, 64)   DRY( 38, 65)   DRY( 38, 66)   
    DRY( 38, 67)   DRY( 38, 68)   DRY( 38, 69)   DRY( 38, 70)   DRY( 38, 71)   
    DRY( 38, 72)   DRY( 38, 73)   DRY( 38, 74)   DRY( 38, 75)   DRY( 38, 76)   
    DRY( 38, 77)   DRY( 38, 78)   DRY( 38, 79)   DRY( 38, 80)   DRY( 38, 81)   
    DRY( 38, 82)   DRY( 38, 83)   DRY( 38, 84)   DRY( 38, 85)   DRY( 38, 86)   
    DRY( 38, 87)   DRY( 38, 88)   DRY( 38, 89)   DRY( 38, 90)   DRY( 38, 91)   
    DRY( 38, 92)   DRY( 38, 93)   DRY( 38, 94)   DRY( 38, 95)   DRY( 38, 96)   
    DRY( 38, 97)   DRY( 38, 98)   DRY( 38, 99)   DRY( 38,100)   DRY( 38,101)   
    DRY( 38,102)   DRY( 38,103)   DRY( 38,104)   DRY( 38,105)   DRY( 38,106)   
    DRY( 38,107)   DRY( 38,108)   DRY( 38,109)   DRY( 38,110)   DRY( 38,111)   
    DRY( 38,112)   DRY( 38,113)   DRY( 38,114)   DRY( 38,115)   DRY( 38,116)   
    DRY( 38,117)   DRY( 38,118)   DRY( 38,119)   DRY( 38,120)   DRY( 38,121)   
    DRY( 38,122)   DRY( 38,123)   DRY( 38,124)   DRY( 38,125)   DRY( 38,126)   
    DRY( 38,127)   DRY( 38,128)   DRY( 38,129)   DRY( 38,130)   DRY( 38,131)   
    DRY( 38,132)   DRY( 38,133)   DRY( 38,134)   DRY( 38,135)   DRY( 38,136)   
    DRY( 38,137)   DRY( 38,138)   DRY( 38,139)   DRY( 38,140)   DRY( 38,141)   
    DRY( 38,142)   DRY( 38,143)   DRY( 38,144)   DRY( 38,145)   DRY( 38,146)   
    DRY( 38,147)   DRY( 38,148)   DRY( 38,149)   DRY( 38,150)   DRY( 38,151)   
    DRY( 38,152)   DRY( 38,153)   DRY( 38,154)   DRY( 38,155)   DRY( 38,156)   
    DRY( 38,157)   DRY( 38,158)   DRY( 38,159)   DRY( 38,160)   DRY( 38,161)   
    DRY( 38,162)   DRY( 38,163)   DRY( 38,164)   DRY( 38,165)   DRY( 38,166)   
    DRY( 38,167)   DRY( 38,168)   DRY( 38,169)   DRY( 38,170)   DRY( 38,171)   
    DRY( 38,172)   DRY( 38,173)   DRY( 38,174)   DRY( 38,175)   DRY( 38,176)   
    DRY( 38,177)   DRY( 38,178)   DRY( 38,179)   DRY( 38,180)   DRY( 38,181)   
    DRY( 38,182)   DRY( 38,183)   DRY( 38,184)   DRY( 38,185)   DRY( 38,186)   
    DRY( 38,187)   DRY( 38,188)   DRY( 38,189)   DRY( 38,190)   DRY( 38,191)   
    DRY( 38,192)   DRY( 38,193)   DRY( 38,194)   DRY( 38,195)   DRY( 38,196)   
    DRY( 38,197)   DRY( 38,198)   DRY( 38,199)   DRY( 38,200)   DRY( 38,201)   
    DRY( 38,202)   DRY( 38,203)   DRY( 38,204)   DRY( 38,205)   DRY( 38,206)   
    DRY( 38,207)   DRY( 38,208)   DRY( 38,209)   DRY( 38,210)   DRY( 38,211)   
    DRY( 38,212)   DRY( 38,213)   DRY( 38,214)   DRY( 38,215)   DRY( 38,216)   
    DRY( 38,217)   DRY( 38,218)   DRY( 38,219)   DRY( 38,220)   DRY( 39,  1)   
    DRY( 39,  2)   DRY( 39,  3)   DRY( 39,  4)   DRY( 39,  5)   DRY( 39,  6)   
    DRY( 39,  7)   DRY( 39,  8)   DRY( 39,  9)   DRY( 39, 10)   DRY( 39, 11)   
    DRY( 39, 12)   DRY( 39, 13)   DRY( 39, 14)   DRY( 39, 15)   DRY( 39, 16)   
    DRY( 39, 17)   DRY( 39, 18)   DRY( 39, 19)   DRY( 39, 20)   DRY( 39, 21)   
    DRY( 39, 22)   DRY( 39, 23)   DRY( 39, 24)   DRY( 39, 25)   DRY( 39, 26)   
    DRY( 39, 27)   DRY( 39, 28)   DRY( 39, 29)   DRY( 39, 30)   DRY( 39, 31)   
    DRY( 39, 32)   DRY( 39, 33)   DRY( 39, 34)   DRY( 39, 35)   DRY( 39, 36)   
    DRY( 39, 37)   DRY( 39, 38)   DRY( 39, 39)   DRY( 39, 40)   DRY( 39, 41)   
    DRY( 39, 42)   DRY( 39, 43)   DRY( 39, 44)   DRY( 39, 45)   DRY( 39, 46)   
    DRY( 39, 47)   DRY( 39, 48)   DRY( 39, 49)   DRY( 39, 50)   DRY( 39, 51)   
    DRY( 39, 52)   DRY( 39, 53)   DRY( 39, 54)   DRY( 39, 55)   DRY( 39, 56)   
    DRY( 39, 57)   DRY( 39, 58)   DRY( 39, 59)   DRY( 39, 60)   DRY( 39, 61)   
    DRY( 39, 62)   DRY( 39, 63)   DRY( 39, 64)   DRY( 39, 65)   DRY( 39, 66)   
    DRY( 39, 67)   DRY( 39, 68)   DRY( 39, 69)   DRY( 39, 70)   DRY( 39, 71)   
    DRY( 39, 72)   DRY( 39, 73)   DRY( 39, 74)   DRY( 39, 75)   DRY( 39, 76)   
    DRY( 39, 77)   DRY( 39, 78)   DRY( 39, 79)   DRY( 39, 80)   DRY( 39, 81)   
    DRY( 39, 82)   DRY( 39, 83)   DRY( 39, 84)   DRY( 39, 85)   DRY( 39, 86)   
    DRY( 39, 87)   DRY( 39, 88)   DRY( 39, 89)   DRY( 39, 90)   DRY( 39, 91)   
    DRY( 39, 92)   DRY( 39, 93)   DRY( 39, 94)   DRY( 39, 95)   DRY( 39, 96)   
    DRY( 39, 97)   DRY( 39, 98)   DRY( 39, 99)   DRY( 39,100)   DRY( 39,101)   
    DRY( 39,102)   DRY( 39,103)   DRY( 39,104)   DRY( 39,105)   DRY( 39,106)   
    DRY( 39,107)   DRY( 39,108)   DRY( 39,109)   DRY( 39,110)   DRY( 39,111)   
    DRY( 39,112)   DRY( 39,113)   DRY( 39,114)   DRY( 39,115)   DRY( 39,116)   
    DRY( 39,117)   DRY( 39,118)   DRY( 39,119)   DRY( 39,120)   DRY( 39,121)   
    DRY( 39,122)   DRY( 39,123)   DRY( 39,124)   DRY( 39,125)   DRY( 39,126)   
    DRY( 39,127)   DRY( 39,128)   DRY( 39,129)   DRY( 39,130)   DRY( 39,131)   
    DRY( 39,132)   DRY( 39,133)   DRY( 39,134)   DRY( 39,135)   DRY( 39,136)   
    DRY( 39,137)   DRY( 39,138)   DRY( 39,139)   DRY( 39,140)   DRY( 39,141)   
    DRY( 39,142)   DRY( 39,143)   DRY( 39,144)   DRY( 39,145)   DRY( 39,146)   
    DRY( 39,147)   DRY( 39,148)   DRY( 39,149)   DRY( 39,150)   DRY( 39,151)   
    DRY( 39,152)   DRY( 39,153)   DRY( 39,154)   DRY( 39,155)   DRY( 39,156)   
    DRY( 39,157)   DRY( 39,158)   DRY( 39,159)   DRY( 39,160)   DRY( 39,161)   
    DRY( 39,162)   DRY( 39,163)   DRY( 39,164)   DRY( 39,165)   DRY( 39,166)   
    DRY( 39,167)   DRY( 39,168)   DRY( 39,169)   DRY( 39,170)   DRY( 39,171)   
    DRY( 39,172)   DRY( 39,173)   DRY( 39,174)   DRY( 39,175)   DRY( 39,176)   
    DRY( 39,177)   DRY( 39,178)   DRY( 39,179)   DRY( 39,180)   DRY( 39,181)   
    DRY( 39,182)   DRY( 39,183)   DRY( 39,184)   DRY( 39,185)   DRY( 39,186)   
    DRY( 39,187)   DRY( 39,188)   DRY( 39,189)   DRY( 39,190)   DRY( 39,191)   
    DRY( 39,192)   DRY( 39,193)   DRY( 39,194)   DRY( 39,195)   DRY( 39,196)   
    DRY( 39,197)   DRY( 39,198)   DRY( 39,199)   DRY( 39,200)   DRY( 39,201)   
    DRY( 39,202)   DRY( 39,203)   DRY( 39,204)   DRY( 39,205)   DRY( 39,206)   
    DRY( 39,207)   DRY( 39,208)   DRY( 39,209)   DRY( 39,210)   DRY( 39,211)   
    DRY( 39,212)   DRY( 39,213)   DRY( 39,214)   DRY( 39,215)   DRY( 39,216)   
    DRY( 39,217)   DRY( 39,218)   DRY( 39,219)   DRY( 39,220)   DRY( 40,  1)   
    DRY( 40,  2)   DRY( 40,  3)   DRY( 40,  4)   DRY( 40,  5)   DRY( 40,  6)   
    DRY( 40,  7)   DRY( 40,  8)   DRY( 40,  9)   DRY( 40, 10)   DRY( 40, 11)   
    DRY( 40, 12)   DRY( 40, 13)   DRY( 40, 14)   DRY( 40, 15)   DRY( 40, 16)   
    DRY( 40, 17)   DRY( 40, 18)   DRY( 40, 19)   DRY( 40, 20)   DRY( 40, 21)   
    DRY( 40, 22)   DRY( 40, 23)   DRY( 40, 24)   DRY( 40, 25)   DRY( 40, 26)   
    DRY( 40, 27)   DRY( 40, 28)   DRY( 40, 29)   DRY( 40, 30)   DRY( 40, 31)   
    DRY( 40, 32)   DRY( 40, 33)   DRY( 40, 34)   DRY( 40, 35)   DRY( 40, 36)   
    DRY( 40, 37)   DRY( 40, 38)   DRY( 40, 39)   DRY( 40, 40)   DRY( 40, 41)   
    DRY( 40, 42)   DRY( 40, 43)   DRY( 40, 44)   DRY( 40, 45)   DRY( 40, 46)   
    DRY( 40, 47)   DRY( 40, 48)   DRY( 40, 49)   DRY( 40, 50)   DRY( 40, 51)   
    DRY( 40, 52)   DRY( 40, 53)   DRY( 40, 54)   DRY( 40, 55)   DRY( 40, 56)   
    DRY( 40, 57)   DRY( 40, 58)   DRY( 40, 59)   DRY( 40, 60)   DRY( 40, 61)   
    DRY( 40, 62)   DRY( 40, 63)   DRY( 40, 64)   DRY( 40, 65)   DRY( 40, 66)   
    DRY( 40, 67)   DRY( 40, 68)   DRY( 40, 69)   DRY( 40, 70)   DRY( 40, 71)   
    DRY( 40, 72)   DRY( 40, 73)   DRY( 40, 74)   DRY( 40, 75)   DRY( 40, 76)   
    DRY( 40, 77)   DRY( 40, 78)   DRY( 40, 79)   DRY( 40, 80)   DRY( 40, 81)   
    DRY( 40, 82)   DRY( 40, 83)   DRY( 40, 84)   DRY( 40, 85)   DRY( 40, 86)   
    DRY( 40, 87)   DRY( 40, 88)   DRY( 40, 89)   DRY( 40, 90)   DRY( 40, 91)   
    DRY( 40, 92)   DRY( 40, 93)   DRY( 40, 94)   DRY( 40, 95)   DRY( 40, 96)   
    DRY( 40, 97)   DRY( 40, 98)   DRY( 40, 99)   DRY( 40,100)   DRY( 40,101)   
    DRY( 40,102)   DRY( 40,103)   DRY( 40,104)   DRY( 40,105)   DRY( 40,106)   
    DRY( 40,107)   DRY( 40,108)   DRY( 40,109)   DRY( 40,110)   DRY( 40,111)   
    DRY( 40,112)   DRY( 40,113)   DRY( 40,114)   DRY( 40,115)   DRY( 40,116)   
    DRY( 40,117)   DRY( 40,118)   DRY( 40,119)   DRY( 40,120)   DRY( 40,121)   
    DRY( 40,122)   DRY( 40,123)   DRY( 40,124)   DRY( 40,125)   DRY( 40,126)   
    DRY( 40,127)   DRY( 40,128)   DRY( 40,129)   DRY( 40,130)   DRY( 40,131)   
    DRY( 40,132)   DRY( 40,133)   DRY( 40,134)   DRY( 40,135)   DRY( 40,136)   
    DRY( 40,137)   DRY( 40,138)   DRY( 40,139)   DRY( 40,140)   DRY( 40,141)   
    DRY( 40,142)   DRY( 40,143)   DRY( 40,144)   DRY( 40,145)   DRY( 40,146)   
    DRY( 40,147)   DRY( 40,148)   DRY( 40,149)   DRY( 40,150)   DRY( 40,151)   
    DRY( 40,152)   DRY( 40,153)   DRY( 40,154)   DRY( 40,155)   DRY( 40,156)   
    DRY( 40,157)   DRY( 40,158)   DRY( 40,159)   DRY( 40,160)   DRY( 40,161)   
    DRY( 40,162)   DRY( 40,163)   DRY( 40,164)   DRY( 40,165)   DRY( 40,166)   
    DRY( 40,167)   DRY( 40,168)   DRY( 40,169)   DRY( 40,170)   DRY( 40,171)   
    DRY( 40,172)   DRY( 40,173)   DRY( 40,174)   DRY( 40,175)   DRY( 40,176)   
    DRY( 40,177)   DRY( 40,178)   DRY( 40,179)   DRY( 40,180)   DRY( 40,181)   
    DRY( 40,182)   DRY( 40,183)   DRY( 40,184)   DRY( 40,185)   DRY( 40,186)   
    DRY( 40,187)   DRY( 40,188)   DRY( 40,189)   DRY( 40,190)   DRY( 40,191)   
    DRY( 40,192)   DRY( 40,193)   DRY( 40,194)   DRY( 40,195)   DRY( 40,196)   
    DRY( 40,197)   DRY( 40,198)   DRY( 40,199)   DRY( 40,200)   DRY( 40,201)   
    DRY( 40,202)   DRY( 40,203)   DRY( 40,204)   DRY( 40,205)   DRY( 40,206)   
    DRY( 40,207)   DRY( 40,208)   DRY( 40,209)   DRY( 40,210)   DRY( 40,211)   
    DRY( 40,212)   DRY( 40,213)   DRY( 40,214)   DRY( 40,215)   DRY( 40,216)   
    DRY( 40,217)   DRY( 40,218)   DRY( 40,219)   DRY( 40,220)   DRY( 41, 13)   
    DRY( 41, 14)   DRY( 41, 15)   DRY( 41, 16)   DRY( 41, 17)   DRY( 41, 18)   
    DRY( 41, 19)   DRY( 41, 20)   DRY( 41, 21)   DRY( 41, 22)   DRY( 41, 23)   
    DRY( 41, 24)   DRY( 41, 25)   DRY( 41, 26)   DRY( 41, 27)   DRY( 41, 28)   
    DRY( 41, 29)   DRY( 41, 30)   DRY( 41, 31)   DRY( 41, 32)   DRY( 41, 33)   
    DRY( 41, 34)   DRY( 41, 35)   DRY( 41, 36)   DRY( 41, 37)   DRY( 41, 38)   
    DRY( 41, 39)   DRY( 41, 40)   DRY( 41, 41)   DRY( 41, 42)   DRY( 41, 43)   
    DRY( 41, 44)   DRY( 41, 45)   DRY( 41, 46)   DRY( 41, 47)   DRY( 41, 48)   
    DRY( 41, 49)   DRY( 41, 50)   DRY( 41, 51)   DRY( 41, 52)   DRY( 41, 53)   
    DRY( 41, 54)   DRY( 41, 55)   DRY( 41, 56)   DRY( 41, 57)   DRY( 41, 58)   
    DRY( 41, 59)   DRY( 41, 60)   DRY( 41, 61)   DRY( 41, 62)   DRY( 41, 63)   
    DRY( 41, 64)   DRY( 41, 65)   DRY( 41, 66)   DRY( 41, 67)   DRY( 41, 68)   
    DRY( 41, 69)   DRY( 41, 70)   DRY( 41, 71)   DRY( 41, 72)   DRY( 41, 73)   
    DRY( 41, 74)   DRY( 41, 75)   DRY( 41, 76)   DRY( 41, 77)   DRY( 41, 78)   
    DRY( 41, 79)   DRY( 41, 80)   DRY( 41, 81)   DRY( 41, 82)   DRY( 41, 83)   
    DRY( 41, 84)   DRY( 41, 85)   DRY( 41, 86)   DRY( 41, 87)   DRY( 41, 88)   
    DRY( 41, 89)   DRY( 41, 90)   DRY( 41, 91)   DRY( 41, 92)   DRY( 41, 93)   
    DRY( 41, 94)   DRY( 41, 95)   DRY( 41, 96)   DRY( 41, 97)   DRY( 41, 98)   
    DRY( 41, 99)   DRY( 41,100)   DRY( 41,101)   DRY( 41,102)   DRY( 41,103)   
    DRY( 41,104)   DRY( 41,105)   DRY( 41,106)   DRY( 41,107)   DRY( 41,108)   
    DRY( 41,109)   DRY( 41,110)   DRY( 41,111)   DRY( 41,112)   DRY( 41,113)   
    DRY( 41,114)   DRY( 41,115)   DRY( 41,116)   DRY( 41,117)   DRY( 41,118)   
    DRY( 41,119)   DRY( 41,120)   DRY( 41,121)   DRY( 41,122)   DRY( 41,123)   
    DRY( 41,124)   DRY( 41,125)   DRY( 41,126)   DRY( 41,127)   DRY( 41,128)   
    DRY( 41,129)   DRY( 41,130)   DRY( 41,131)   DRY( 41,132)   DRY( 41,133)   
    DRY( 41,134)   DRY( 41,135)   DRY( 41,136)   DRY( 41,137)   DRY( 41,138)   
    DRY( 41,139)   DRY( 41,140)   DRY( 41,141)   DRY( 41,142)   DRY( 41,143)   
    DRY( 41,144)   DRY( 41,145)   DRY( 41,146)   DRY( 41,147)   DRY( 41,148)   
    DRY( 41,149)   DRY( 41,150)   DRY( 41,151)   DRY( 41,152)   DRY( 41,153)   
    DRY( 41,154)   DRY( 41,155)   DRY( 41,156)   DRY( 41,157)   DRY( 41,158)   
    DRY( 41,159)   DRY( 41,160)   DRY( 41,161)   DRY( 41,162)   DRY( 41,163)   
    DRY( 41,164)   DRY( 41,165)   DRY( 41,166)   DRY( 41,167)   DRY( 41,168)   
    DRY( 41,169)   DRY( 41,170)   DRY( 41,171)   DRY( 41,172)   DRY( 41,173)   
    DRY( 41,174)   DRY( 41,175)   DRY( 41,176)   DRY( 41,177)   DRY( 41,178)   
    DRY( 41,179)   DRY( 41,180)   DRY( 41,181)   DRY( 41,182)   DRY( 41,183)   
    DRY( 41,184)   DRY( 41,185)   DRY( 41,186)   DRY( 41,187)   DRY( 41,188)   
    DRY( 41,189)   DRY( 41,190)   DRY( 41,191)   DRY( 41,192)   DRY( 41,193)   
    DRY( 41,194)   DRY( 41,195)   DRY( 41,196)   DRY( 41,197)   DRY( 41,198)   
    DRY( 41,199)   DRY( 41,200)   DRY( 41,201)   DRY( 41,202)   DRY( 41,203)   
    DRY( 41,204)   DRY( 41,205)   DRY( 41,206)   DRY( 41,207)   DRY( 41,208)   
    DRY( 41,209)   DRY( 41,210)   DRY( 41,211)   DRY( 41,212)   DRY( 41,213)   
    DRY( 41,214)   DRY( 41,215)   DRY( 41,216)   DRY( 41,217)   DRY( 41,218)   
    DRY( 41,219)   DRY( 41,220)   DRY( 42, 92)   DRY( 42, 93)   DRY( 42, 94)   
    DRY( 42, 95)   DRY( 42, 96)   DRY( 42, 97)   DRY( 42, 98)   DRY( 42, 99)   
    DRY( 42,100)   DRY( 42,101)   DRY( 42,102)   DRY( 42,103)   DRY( 42,104)   
    DRY( 42,105)   DRY( 42,106)   DRY( 42,107)   DRY( 42,108)   DRY( 42,109)   
    DRY( 42,110)   DRY( 42,111)   DRY( 42,112)   DRY( 42,113)   DRY( 42,114)   
    DRY( 42,115)   DRY( 42,116)   DRY( 42,117)   DRY( 42,118)   DRY( 42,119)   
    DRY( 42,120)   DRY( 42,121)   DRY( 42,122)   DRY( 42,123)   DRY( 42,124)   
    DRY( 42,125)   DRY( 42,126)   DRY( 42,127)   DRY( 42,128)   DRY( 42,129)   
    DRY( 42,130)   DRY( 42,131)   DRY( 42,132)   DRY( 42,133)   DRY( 42,134)   
    DRY( 42,135)   DRY( 42,136)   DRY( 42,137)   DRY( 42,138)   DRY( 42,139)   
    DRY( 42,140)   DRY( 42,141)   DRY( 42,142)   DRY( 42,143)   DRY( 42,144)   
    DRY( 42,145)   DRY( 42,146)   DRY( 42,147)   DRY( 42,148)   DRY( 42,149)   
    DRY( 42,150)   DRY( 42,151)   DRY( 42,152)   DRY( 42,153)   DRY( 42,154)   
    DRY( 42,155)   DRY( 42,156)   DRY( 42,157)   DRY( 42,158)   DRY( 42,159)   
    DRY( 42,160)   DRY( 42,161)   DRY( 42,162)   DRY( 42,163)   DRY( 42,164)   
    DRY( 42,165)   DRY( 42,166)   DRY( 42,167)   DRY( 42,168)   DRY( 42,169)   
    DRY( 42,170)   DRY( 42,171)   DRY( 42,172)   DRY( 42,173)   DRY( 42,174)   
    DRY( 42,175)   DRY( 42,176)   DRY( 42,177)   DRY( 42,178)   DRY( 42,179)   
    DRY( 42,180)   DRY( 42,181)   DRY( 42,182)   DRY( 42,183)   DRY( 42,184)   
    DRY( 42,185)   DRY( 42,186)   DRY( 42,187)   DRY( 42,188)   DRY( 42,189)   
    DRY( 42,190)   DRY( 42,191)   DRY( 42,192)   DRY( 42,193)   DRY( 42,194)   
    DRY( 42,195)   DRY( 42,196)   DRY( 42,197)   DRY( 42,198)   DRY( 42,199)   
    DRY( 42,200)   DRY( 42,201)   DRY( 42,202)   DRY( 42,203)   DRY( 42,204)   
    DRY( 42,205)   DRY( 42,206)   DRY( 42,207)   DRY( 42,208)   DRY( 42,209)   
    DRY( 42,210)   DRY( 42,211)   DRY( 42,212)   DRY( 42,213)   DRY( 42,214)   
    DRY( 42,215)   DRY( 42,216)   DRY( 42,217)   DRY( 42,218)   DRY( 42,219)   
    DRY( 42,220)   DRY( 43,169)   DRY( 43,170)   DRY( 43,171)   DRY( 43,172)   
    DRY( 43,173)   DRY( 43,174)   DRY( 43,175)   DRY( 43,176)   DRY( 43,177)   
    DRY( 43,178)   DRY( 43,179)   DRY( 43,180)   DRY( 43,181)   DRY( 43,182)   
    DRY( 43,183)   DRY( 43,184)   DRY( 43,185)   DRY( 43,186)   DRY( 43,187)   
    DRY( 43,188)   DRY( 43,189)   DRY( 43,190)   DRY( 43,191)   DRY( 43,192)   
    DRY( 43,193)   DRY( 43,194)   DRY( 43,195)   DRY( 43,196)   DRY( 43,197)   
    DRY( 43,198)   DRY( 43,199)   DRY( 43,200)   DRY( 43,201)   DRY( 43,202)   
    DRY( 43,203)   DRY( 43,204)   DRY( 43,205)   DRY( 43,206)   DRY( 43,207)   
    DRY( 43,208)   DRY( 43,209)   DRY( 43,210)   DRY( 43,211)   DRY( 43,212)   
    DRY( 43,213)   DRY( 43,214)   DRY( 43,215)   DRY( 43,216)   DRY( 43,217)   
    DRY( 43,218)   DRY( 43,219)   DRY( 43,220)   

 CELL CONVERSIONS FOR ITER.=  4  LAYER= 19  STEP=  1  PERIOD=   1   (ROW,COL)
    DRY( 40,  1)   DRY( 40,  2)   DRY( 40,  3)   DRY( 40,  4)   DRY( 40,  5)   
    DRY( 40,  6)   DRY( 40,  7)   DRY( 40,  8)   DRY( 40,  9)   DRY( 40, 10)   
    DRY( 40, 11)   DRY( 40, 12)   DRY( 40, 13)   DRY( 40, 14)   DRY( 40,135)   
    DRY( 40,136)   DRY( 40,137)   DRY( 40,138)   DRY( 40,139)   DRY( 40,140)   
    DRY( 40,141)   DRY( 40,142)   DRY( 40,143)   DRY( 41,  1)   DRY( 41,  2)   
    DRY( 41,  3)   DRY( 41,  4)   DRY( 41,  5)   DRY( 41,  6)   DRY( 41,  7)   
    DRY( 41,  8)   DRY( 41,  9)   DRY( 41, 10)   DRY( 41, 11)   DRY( 41, 12)   
    DRY( 41, 13)   DRY( 41, 14)   DRY( 41, 15)   DRY( 41, 16)   DRY( 41, 17)   
    DRY( 41, 18)   DRY( 41, 19)   DRY( 41, 20)   DRY( 41, 21)   DRY( 41, 22)   
    DRY( 41, 23)   DRY( 41, 24)   DRY( 41, 25)   DRY( 41, 26)   DRY( 41, 27)   
    DRY( 41, 28)   DRY( 41, 29)   DRY( 41, 30)   DRY( 41, 31)   DRY( 41, 32)   
    DRY( 41, 33)   DRY( 41, 34)   DRY( 41, 35)   DRY( 41, 36)   DRY( 41, 37)   
    DRY( 41, 38)   DRY( 41, 39)   DRY( 41, 40)   DRY( 41, 41)   DRY( 41, 42)   
    DRY( 41, 43)   DRY( 41, 44)   DRY( 41, 45)   DRY( 41, 46)   DRY( 41, 47)   
    DRY( 41, 48)   DRY( 41, 49)   DRY( 41, 50)   DRY( 41, 51)   DRY( 41, 52)   
    DRY( 41, 53)   DRY( 41, 54)   DRY( 41, 55)   DRY( 41, 56)   DRY( 41, 57)   
    DRY( 41, 58)   DRY( 41, 59)   DRY( 41, 60)   DRY( 41, 61)   DRY( 41, 62)   
    DRY( 41, 63)   DRY( 41, 64)   DRY( 41, 65)   DRY( 41, 66)   DRY( 41, 67)   
    DRY( 41, 68)   DRY( 41, 69)   DRY( 41, 70)   DRY( 41, 71)   DRY( 41, 72)   
    DRY( 41, 73)   DRY( 41, 74)   DRY( 41, 75)   DRY( 41, 76)   DRY( 41, 77)   
    DRY( 41, 78)   DRY( 41, 79)   DRY( 41, 80)   DRY( 41, 81)   DRY( 41, 82)   
    DRY( 41, 83)   DRY( 41, 84)   DRY( 41, 85)   DRY( 41, 86)   DRY( 41, 87)   
    DRY( 41, 88)   DRY( 41, 89)   DRY( 41, 90)   DRY( 41, 91)   DRY( 41, 92)   
    DRY( 41, 93)   DRY( 41, 94)   DRY( 41, 95)   DRY( 41, 96)   DRY( 41, 97)   
    DRY( 41, 98)   DRY( 41, 99)   DRY( 41,100)   DRY( 41,101)   DRY( 41,102)   
    DRY( 41,103)   DRY( 41,104)   DRY( 41,105)   DRY( 41,106)   DRY( 41,107)   
    DRY( 41,108)   DRY( 41,109)   DRY( 41,110)   DRY( 41,111)   DRY( 41,112)   
    DRY( 41,113)   DRY( 41,114)   DRY( 41,115)   DRY( 41,116)   DRY( 41,117)   
    DRY( 41,118)   DRY( 41,119)   DRY( 41,120)   DRY( 41,121)   DRY( 41,122)   
    DRY( 41,123)   DRY( 41,124)   DRY( 41,125)   DRY( 41,126)   DRY( 41,127)   
    DRY( 41,128)   DRY( 41,129)   DRY( 41,130)   DRY( 41,131)   DRY( 41,132)   
    DRY( 41,133)   DRY( 41,134)   DRY( 41,135)   DRY( 41,136)   DRY( 41,137)   
    DRY( 41,138)   DRY( 41,139)   DRY( 41,140)   DRY( 41,141)   DRY( 41,142)   
    DRY( 41,143)   DRY( 41,144)   DRY( 41,145)   DRY( 41,146)   DRY( 41,147)   
    DRY( 41,148)   DRY( 41,149)   DRY( 41,150)   DRY( 41,151)   DRY( 41,152)   
    DRY( 41,153)   DRY( 41,154)   DRY( 41,155)   DRY( 41,156)   DRY( 41,157)   
    DRY( 41,158)   DRY( 41,159)   DRY( 41,160)   DRY( 41,161)   DRY( 41,162)   
    DRY( 41,163)   DRY( 41,164)   DRY( 41,165)   DRY( 41,166)   DRY( 41,167)   
    DRY( 41,168)   DRY( 41,169)   DRY( 41,170)   DRY( 41,171)   DRY( 41,172)   
    DRY( 41,173)   DRY( 41,174)   DRY( 41,175)   DRY( 41,176)   DRY( 41,177)   
    DRY( 41,178)   DRY( 41,179)   DRY( 41,180)   DRY( 41,181)   DRY( 41,182)   
    DRY( 41,183)   DRY( 41,184)   DRY( 41,185)   DRY( 41,186)   DRY( 41,187)   
    DRY( 41,188)   DRY( 41,189)   DRY( 41,190)   DRY( 41,191)   DRY( 41,192)   
    DRY( 41,193)   DRY( 41,194)   DRY( 41,195)   DRY( 41,196)   DRY( 41,197)   
    DRY( 41,198)   DRY( 41,199)   DRY( 41,200)   DRY( 41,201)   DRY( 41,202)   
    DRY( 41,203)   DRY( 41,204)   DRY( 41,205)   DRY( 41,206)   DRY( 41,207)   
    DRY( 41,208)   DRY( 41,209)   DRY( 41,210)   DRY( 41,211)   DRY( 41,212)   
    DRY( 41,213)   DRY( 41,214)   DRY( 41,215)   DRY( 41,216)   DRY( 41,217)   
    DRY( 41,218)   DRY( 41,219)   DRY( 41,220)   DRY( 42,  1)   DRY( 42,  2)   
    DRY( 42,  3)   DRY( 42,  4)   DRY( 42,  5)   DRY( 42,  6)   DRY( 42,  7)   
    DRY( 42,  8)   DRY( 42,  9)   DRY( 42, 10)   DRY( 42, 11)   DRY( 42, 12)   
    DRY( 42, 13)   DRY( 42, 14)   DRY( 42, 15)   DRY( 42, 16)   DRY( 42, 17)   
    DRY( 42, 18)   DRY( 42, 19)   DRY( 42, 20)   DRY( 42, 21)   DRY( 42, 22)   
    DRY( 42, 23)   DRY( 42, 24)   DRY( 42, 25)   DRY( 42, 26)   DRY( 42, 27)   
    DRY( 42, 28)   DRY( 42, 29)   DRY( 42, 30)   DRY( 42, 31)   DRY( 42, 32)   
    DRY( 42, 33)   DRY( 42, 34)   DRY( 42, 35)   DRY( 42, 36)   DRY( 42, 37)   
    DRY( 42, 38)   DRY( 42, 39)   DRY( 42, 40)   DRY( 42, 41)   DRY( 42, 42)   
    DRY( 42, 43)   DRY( 42, 44)   DRY( 42, 45)   DRY( 42, 46)   DRY( 42, 47)   
    DRY( 42, 48)   DRY( 42, 49)   DRY( 42, 50)   DRY( 42, 51)   DRY( 42, 52)   
    DRY( 42, 53)   DRY( 42, 54)   DRY( 42, 55)   DRY( 42, 56)   DRY( 42, 57)   
    DRY( 42, 58)   DRY( 42, 59)   DRY( 42, 60)   DRY( 42, 61)   DRY( 42, 62)   
    DRY( 42, 63)   DRY( 42, 64)   DRY( 42, 65)   DRY( 42, 66)   DRY( 42, 67)   
    DRY( 42, 68)   DRY( 42, 69)   DRY( 42, 70)   DRY( 42, 71)   DRY( 42, 72)   
    DRY( 42, 73)   DRY( 42, 74)   DRY( 42, 75)   DRY( 42, 76)   DRY( 42, 77)   
    DRY( 42, 78)   DRY( 42, 79)   DRY( 42, 80)   DRY( 42, 81)   DRY( 42, 82)   
    DRY( 42, 83)   DRY( 42, 84)   DRY( 42, 85)   DRY( 42, 86)   DRY( 42, 87)   
    DRY( 42, 88)   DRY( 42, 89)   DRY( 42, 90)   DRY( 42, 91)   DRY( 42, 92)   
    DRY( 42, 93)   DRY( 42, 94)   DRY( 42, 95)   DRY( 42, 96)   DRY( 42, 97)   
    DRY( 42, 98)   DRY( 42, 99)   DRY( 42,100)   DRY( 42,101)   DRY( 42,102)   
    DRY( 42,103)   DRY( 42,104)   DRY( 42,105)   DRY( 42,106)   DRY( 42,107)   
    DRY( 42,108)   DRY( 42,109)   DRY( 42,110)   DRY( 42,111)   DRY( 42,112)   
    DRY( 42,113)   DRY( 42,114)   DRY( 42,115)   DRY( 42,116)   DRY( 42,117)   
    DRY( 42,118)   DRY( 42,119)   DRY( 42,120)   DRY( 42,121)   DRY( 42,122)   
    DRY( 42,123)   DRY( 42,124)   DRY( 42,125)   DRY( 42,126)   DRY( 42,127)   
    DRY( 42,128)   DRY( 42,129)   DRY( 42,130)   DRY( 42,131)   DRY( 42,132)   
    DRY( 42,133)   DRY( 42,134)   DRY( 42,135)   DRY( 42,136)   DRY( 42,137)   
    DRY( 42,138)   DRY( 42,139)   DRY( 42,140)   DRY( 42,141)   DRY( 42,142)   
    DRY( 42,143)   DRY( 42,144)   DRY( 42,145)   DRY( 42,146)   DRY( 42,147)   
    DRY( 42,148)   DRY( 42,149)   DRY( 42,150)   DRY( 42,151)   DRY( 42,152)   
    DRY( 42,153)   DRY( 42,154)   DRY( 42,155)   DRY( 42,156)   DRY( 42,157)   
    DRY( 42,158)   DRY( 42,159)   DRY( 42,160)   DRY( 42,161)   DRY( 42,162)   
    DRY( 42,163)   DRY( 42,164)   DRY( 42,165)   DRY( 42,166)   DRY( 42,167)   
    DRY( 42,168)   DRY( 42,169)   DRY( 42,170)   DRY( 42,171)   DRY( 42,172)   
    DRY( 42,173)   DRY( 42,174)   DRY( 42,175)   DRY( 42,176)   DRY( 42,177)   
    DRY( 42,178)   DRY( 42,179)   DRY( 42,180)   DRY( 42,181)   DRY( 42,182)   
    DRY( 42,183)   DRY( 42,184)   DRY( 42,185)   DRY( 42,186)   DRY( 42,187)   
    DRY( 42,188)   DRY( 42,189)   DRY( 42,190)   DRY( 42,191)   DRY( 42,192)   
    DRY( 42,193)   DRY( 42,194)   DRY( 42,195)   DRY( 42,196)   DRY( 42,197)   
    DRY( 42,198)   DRY( 42,199)   DRY( 42,200)   DRY( 42,201)   DRY( 42,202)   
    DRY( 42,203)   DRY( 42,204)   DRY( 42,205)   DRY( 42,206)   DRY( 42,207)   
    DRY( 42,208)   DRY( 42,209)   DRY( 42,210)   DRY( 42,211)   DRY( 42,212)   
    DRY( 42,213)   DRY( 42,214)   DRY( 42,215)   DRY( 42,216)   DRY( 42,217)   
    DRY( 42,218)   DRY( 42,219)   DRY( 42,220)   DRY( 43,  1)   DRY( 43,  2)   
    DRY( 43,  3)   DRY( 43,  4)   DRY( 43,  5)   DRY( 43,  6)   DRY( 43,  7)   
    DRY( 43,  8)   DRY( 43,  9)   DRY( 43, 10)   DRY( 43, 11)   DRY( 43, 12)   
    DRY( 43, 13)   DRY( 43, 14)   DRY( 43, 15)   DRY( 43, 16)   DRY( 43, 17)   
    DRY( 43, 18)   DRY( 43, 19)   DRY( 43, 20)   DRY( 43, 21)   DRY( 43, 22)   
    DRY( 43, 23)   DRY( 43, 24)   DRY( 43, 25)   DRY( 43, 26)   DRY( 43, 27)   
    DRY( 43, 28)   DRY( 43, 29)   DRY( 43, 30)   DRY( 43, 31)   DRY( 43, 32)   
    DRY( 43, 33)   DRY( 43, 34)   DRY( 43, 35)   DRY( 43, 36)   DRY( 43, 37)   
    DRY( 43, 38)   DRY( 43, 39)   DRY( 43, 40)   DRY( 43, 41)   DRY( 43, 42)   
    DRY( 43, 43)   DRY( 43, 44)   DRY( 43, 45)   DRY( 43, 46)   DRY( 43, 47)   
    DRY( 43, 48)   DRY( 43, 49)   DRY( 43, 50)   DRY( 43, 51)   DRY( 43, 52)   
    DRY( 43, 53)   DRY( 43, 54)   DRY( 43, 55)   DRY( 43, 56)   DRY( 43, 57)   
    DRY( 43, 58)   DRY( 43, 59)   DRY( 43, 60)   DRY( 43, 61)   DRY( 43, 62)   
    DRY( 43, 63)   DRY( 43, 64)   DRY( 43, 65)   DRY( 43, 66)   DRY( 43, 67)   
    DRY( 43, 68)   DRY( 43, 69)   DRY( 43, 70)   DRY( 43, 71)   DRY( 43, 72)   
    DRY( 43, 73)   DRY( 43, 74)   DRY( 43, 75)   DRY( 43, 76)   DRY( 43, 77)   
    DRY( 43, 78)   DRY( 43, 79)   DRY( 43, 80)   DRY( 43, 81)   DRY( 43, 82)   
    DRY( 43, 83)   DRY( 43, 84)   DRY( 43, 85)   DRY( 43, 86)   DRY( 43, 87)   
    DRY( 43, 88)   DRY( 43, 89)   DRY( 43, 90)   DRY( 43, 91)   DRY( 43, 92)   
    DRY( 43, 93)   DRY( 43, 94)   DRY( 43, 95)   DRY( 43, 96)   DRY( 43, 97)   
    DRY( 43, 98)   DRY( 43, 99)   DRY( 43,100)   DRY( 43,101)   DRY( 43,102)   
    DRY( 43,103)   DRY( 43,104)   DRY( 43,105)   DRY( 43,106)   DRY( 43,107)   
    DRY( 43,108)   DRY( 43,109)   DRY( 43,110)   DRY( 43,111)   DRY( 43,112)   
    DRY( 43,113)   DRY( 43,114)   DRY( 43,115)   DRY( 43,116)   DRY( 43,117)   
    DRY( 43,118)   DRY( 43,119)   DRY( 43,120)   DRY( 43,121)   DRY( 43,122)   
    DRY( 43,123)   DRY( 43,124)   DRY( 43,125)   DRY( 43,126)   DRY( 43,127)   
    DRY( 43,128)   DRY( 43,129)   DRY( 43,130)   DRY( 43,131)   DRY( 43,132)   
    DRY( 43,133)   DRY( 43,134)   DRY( 43,135)   DRY( 43,136)   DRY( 43,137)   
    DRY( 43,138)   DRY( 43,139)   DRY( 43,140)   DRY( 43,141)   DRY( 43,142)   
    DRY( 43,143)   DRY( 43,144)   DRY( 43,145)   DRY( 43,146)   DRY( 43,147)   
    DRY( 43,148)   DRY( 43,149)   DRY( 43,150)   DRY( 43,151)   DRY( 43,152)   
    DRY( 43,153)   DRY( 43,154)   DRY( 43,155)   DRY( 43,156)   DRY( 43,157)   
    DRY( 43,158)   DRY( 43,159)   DRY( 43,160)   DRY( 43,161)   DRY( 43,162)   
    DRY( 43,163)   DRY( 43,164)   DRY( 43,165)   DRY( 43,166)   DRY( 43,167)   
    DRY( 43,168)   DRY( 43,169)   DRY( 43,170)   DRY( 43,171)   DRY( 43,172)   
    DRY( 43,173)   DRY( 43,174)   DRY( 43,175)   DRY( 43,176)   DRY( 43,177)   
    DRY( 43,178)   DRY( 43,179)   DRY( 43,180)   DRY( 43,181)   DRY( 43,182)   
    DRY( 43,183)   DRY( 43,184)   DRY( 43,185)   DRY( 43,186)   DRY( 43,187)   
    DRY( 43,188)   DRY( 43,189)   DRY( 43,190)   DRY( 43,191)   DRY( 43,192)   
    DRY( 43,193)   DRY( 43,194)   DRY( 43,195)   DRY( 43,196)   DRY( 43,197)   
    DRY( 43,198)   DRY( 43,199)   DRY( 43,200)   DRY( 43,201)   DRY( 43,202)   
    DRY( 43,203)   DRY( 43,204)   DRY( 43,205)   DRY( 43,206)   DRY( 43,207)   
    DRY( 43,208)   DRY( 43,209)   DRY( 43,210)   DRY( 43,211)   DRY( 43,212)   
    DRY( 43,213)   DRY( 43,214)   DRY( 43,215)   DRY( 43,216)   DRY( 43,217)   
    DRY( 43,218)   DRY( 43,219)   DRY( 43,220)   DRY( 44,  1)   DRY( 44,  2)   
    DRY( 44,  3)   DRY( 44,  4)   DRY( 44,  5)   DRY( 44,  6)   DRY( 44,  7)   
    DRY( 44,  8)   DRY( 44,  9)   DRY( 44, 10)   DRY( 44, 11)   DRY( 44, 12)   
    DRY( 44, 13)   DRY( 44, 14)   DRY( 44, 15)   DRY( 44, 16)   DRY( 44, 17)   
    DRY( 44, 18)   DRY( 44, 19)   DRY( 44, 20)   DRY( 44, 21)   DRY( 44, 22)   
    DRY( 44, 23)   DRY( 44, 24)   DRY( 44, 25)   DRY( 44, 26)   DRY( 44, 27)   
    DRY( 44, 28)   DRY( 44, 29)   DRY( 44, 30)   DRY( 44, 31)   DRY( 44, 32)   
    DRY( 44, 33)   DRY( 44, 34)   DRY( 44, 35)   DRY( 44, 36)   DRY( 44, 37)   
    DRY( 44, 38)   DRY( 44, 39)   DRY( 44, 40)   DRY( 44, 41)   DRY( 44, 42)   
    DRY( 44, 43)   DRY( 44, 44)   DRY( 44, 45)   DRY( 44, 46)   DRY( 44, 47)   
    DRY( 44, 48)   DRY( 44, 49)   DRY( 44, 50)   DRY( 44, 51)   DRY( 44, 52)   
    DRY( 44, 53)   DRY( 44, 54)   DRY( 44, 55)   DRY( 44, 56)   DRY( 44, 57)   
    DRY( 44, 58)   DRY( 44, 59)   DRY( 44, 60)   DRY( 44, 61)   DRY( 44, 62)   
    DRY( 44, 63)   DRY( 44, 64)   DRY( 44, 65)   DRY( 44, 66)   DRY( 44, 67)   
    DRY( 44, 68)   DRY( 44, 69)   DRY( 44, 70)   DRY( 44, 71)   DRY( 44, 72)   
    DRY( 44, 73)   DRY( 44, 74)   DRY( 44, 75)   DRY( 44, 76)   DRY( 44, 77)   
    DRY( 44, 78)   DRY( 44, 79)   DRY( 44, 80)   DRY( 44, 81)   DRY( 44, 82)   
    DRY( 44, 83)   DRY( 44, 84)   DRY( 44, 85)   DRY( 44, 86)   DRY( 44, 87)   
    DRY( 44, 88)   DRY( 44, 89)   DRY( 44, 90)   DRY( 44, 91)   DRY( 44, 92)   
    DRY( 44, 93)   DRY( 44, 94)   DRY( 44, 95)   DRY( 44, 96)   DRY( 44, 97)   
    DRY( 44, 98)   DRY( 44, 99)   DRY( 44,100)   DRY( 44,101)   DRY( 44,102)   
    DRY( 44,103)   DRY( 44,104)   DRY( 44,105)   DRY( 44,106)   DRY( 44,107)   
    DRY( 44,108)   DRY( 44,109)   DRY( 44,110)   DRY( 44,111)   DRY( 44,112)   
    DRY( 44,113)   DRY( 44,114)   DRY( 44,115)   DRY( 44,116)   DRY( 44,117)   
    DRY( 44,118)   DRY( 44,119)   DRY( 44,120)   DRY( 44,121)   DRY( 44,122)   
    DRY( 44,123)   DRY( 44,124)   DRY( 44,125)   DRY( 44,126)   DRY( 44,127)   
    DRY( 44,128)   DRY( 44,129)   DRY( 44,130)   DRY( 44,131)   DRY( 44,132)   
    DRY( 44,133)   DRY( 44,134)   DRY( 44,135)   DRY( 44,136)   DRY( 44,137)   
    DRY( 44,138)   DRY( 44,139)   DRY( 44,140)   DRY( 44,141)   DRY( 44,142)   
    DRY( 44,143)   DRY( 44,144)   DRY( 44,145)   DRY( 44,146)   DRY( 44,147)   
    DRY( 44,148)   DRY( 44,149)   DRY( 44,150)   DRY( 44,151)   DRY( 44,152)   
    DRY( 44,153)   DRY( 44,154)   DRY( 44,155)   DRY( 44,156)   DRY( 44,157)   
    DRY( 44,158)   DRY( 44,159)   DRY( 44,160)   DRY( 44,161)   DRY( 44,162)   
    DRY( 44,163)   DRY( 44,164)   DRY( 44,165)   DRY( 44,166)   DRY( 44,167)   
    DRY( 44,168)   DRY( 44,169)   DRY( 44,170)   DRY( 44,171)   DRY( 44,172)   
    DRY( 44,173)   DRY( 44,174)   DRY( 44,175)   DRY( 44,176)   DRY( 44,177)   
    DRY( 44,178)   DRY( 44,179)   DRY( 44,180)   DRY( 44,181)   DRY( 44,182)   
    DRY( 44,183)   DRY( 44,184)   DRY( 44,185)   DRY( 44,186)   DRY( 44,187)   
    DRY( 44,188)   DRY( 44,189)   DRY( 44,190)   DRY( 44,191)   DRY( 44,192)   
    DRY( 44,193)   DRY( 44,194)   DRY( 44,195)   DRY( 44,196)   DRY( 44,197)   
    DRY( 44,198)   DRY( 44,199)   DRY( 44,200)   DRY( 44,201)   DRY( 44,202)   
    DRY( 44,203)   DRY( 44,204)   DRY( 44,205)   DRY( 44,206)   DRY( 44,207)   
    DRY( 44,208)   DRY( 44,209)   DRY( 44,210)   DRY( 44,211)   DRY( 44,212)   
    DRY( 44,213)   DRY( 44,214)   DRY( 44,215)   DRY( 44,216)   DRY( 44,217)   
    DRY( 44,218)   DRY( 44,219)   DRY( 44,220)   DRY( 45,  1)   DRY( 45,  2)   
    DRY( 45,  3)   DRY( 45,  4)   DRY( 45,  5)   DRY( 45,  6)   DRY( 45,  7)   
    DRY( 45,  8)   DRY( 45,  9)   DRY( 45, 10)   DRY( 45, 11)   DRY( 45, 12)   
    DRY( 45, 13)   DRY( 45, 14)   DRY( 45, 15)   DRY( 45, 16)   DRY( 45, 17)   
    DRY( 45, 18)   DRY( 45, 19)   DRY( 45, 20)   DRY( 45, 21)   DRY( 45, 22)   
    DRY( 45, 23)   DRY( 45, 24)   DRY( 45, 25)   DRY( 45, 26)   DRY( 45, 27)   
    DRY( 45, 28)   DRY( 45, 29)   DRY( 45, 30)   DRY( 45, 31)   DRY( 45, 32)   
    DRY( 45, 33)   DRY( 45, 34)   DRY( 45, 35)   DRY( 45, 36)   DRY( 45, 37)   
    DRY( 45, 38)   DRY( 45, 39)   DRY( 45, 40)   DRY( 45, 41)   DRY( 45, 42)   
    DRY( 45, 43)   DRY( 45, 44)   DRY( 45, 45)   DRY( 45, 46)   DRY( 45, 47)   
    DRY( 45, 48)   DRY( 45, 49)   DRY( 45, 50)   DRY( 45, 51)   DRY( 45, 52)   
    DRY( 45, 53)   DRY( 45, 54)   DRY( 45, 55)   DRY( 45, 56)   DRY( 45, 57)   
    DRY( 45, 58)   DRY( 45, 59)   DRY( 45, 60)   DRY( 45, 61)   DRY( 45, 62)   
    DRY( 45, 63)   DRY( 45, 64)   DRY( 45, 65)   DRY( 45, 66)   DRY( 45, 67)   
    DRY( 45, 68)   DRY( 45, 69)   DRY( 45, 70)   DRY( 45, 71)   DRY( 45, 72)   
    DRY( 45, 73)   DRY( 45, 74)   DRY( 45, 75)   DRY( 45, 76)   DRY( 45, 77)   
    DRY( 45, 78)   DRY( 45, 79)   DRY( 45, 80)   DRY( 45, 81)   DRY( 45, 82)   
    DRY( 45, 83)   DRY( 45, 84)   DRY( 45, 85)   DRY( 45, 86)   DRY( 45, 87)   
    DRY( 45, 88)   DRY( 45, 89)   DRY( 45, 90)   DRY( 45, 91)   DRY( 45, 92)   
    DRY( 45, 93)   DRY( 45, 94)   DRY( 45, 95)   DRY( 45, 96)   DRY( 45, 97)   
    DRY( 45, 98)   DRY( 45, 99)   DRY( 45,100)   DRY( 45,101)   DRY( 45,102)   
    DRY( 45,103)   DRY( 45,104)   DRY( 45,105)   DRY( 45,106)   DRY( 45,107)   
    DRY( 45,108)   DRY( 45,109)   DRY( 45,110)   DRY( 45,111)   DRY( 45,112)   
    DRY( 45,113)   DRY( 45,114)   DRY( 45,115)   DRY( 45,116)   DRY( 45,117)   
    DRY( 45,118)   DRY( 45,119)   DRY( 45,120)   DRY( 45,121)   DRY( 45,122)   
    DRY( 45,123)   DRY( 45,124)   DRY( 45,125)   DRY( 45,126)   DRY( 45,127)   
    DRY( 45,128)   DRY( 45,129)   DRY( 45,130)   DRY( 45,131)   DRY( 45,132)   
    DRY( 45,133)   DRY( 45,134)   DRY( 45,135)   DRY( 45,136)   DRY( 45,137)   
    DRY( 45,138)   DRY( 45,139)   DRY( 45,140)   DRY( 45,141)   DRY( 45,142)   
    DRY( 45,143)   DRY( 45,144)   DRY( 45,145)   DRY( 45,146)   DRY( 45,147)   
    DRY( 45,148)   DRY( 45,149)   DRY( 45,150)   DRY( 45,151)   DRY( 45,152)   
    DRY( 45,153)   DRY( 45,154)   DRY( 45,155)   DRY( 45,156)   DRY( 45,157)   
    DRY( 45,158)   DRY( 45,159)   DRY( 45,160)   DRY( 45,161)   DRY( 45,162)   
    DRY( 45,163)   DRY( 45,164)   DRY( 45,165)   DRY( 45,166)   DRY( 45,167)   
    DRY( 45,168)   DRY( 45,169)   DRY( 45,170)   DRY( 45,171)   DRY( 45,172)   
    DRY( 45,173)   DRY( 45,174)   DRY( 45,175)   DRY( 45,176)   DRY( 45,177)   
    DRY( 45,178)   DRY( 45,179)   DRY( 45,180)   DRY( 45,181)   DRY( 45,182)   
    DRY( 45,183)   DRY( 45,184)   DRY( 45,185)   DRY( 45,186)   DRY( 45,187)   
    DRY( 45,188)   DRY( 45,189)   DRY( 45,190)   DRY( 45,191)   DRY( 45,192)   
    DRY( 45,193)   DRY( 45,194)   DRY( 45,195)   DRY( 45,196)   DRY( 45,197)   
    DRY( 45,198)   DRY( 45,199)   DRY( 45,200)   DRY( 45,201)   DRY( 45,202)   
    DRY( 45,203)   DRY( 45,204)   DRY( 45,205)   DRY( 45,206)   DRY( 45,207)   
    DRY( 45,208)   DRY( 45,209)   DRY( 45,210)   DRY( 45,211)   DRY( 45,212)   
    DRY( 45,213)   DRY( 45,214)   DRY( 45,215)   DRY( 45,216)   DRY( 45,217)   
    DRY( 45,218)   DRY( 45,219)   DRY( 45,220)   DRY( 46, 65)   DRY( 46, 66)   
    DRY( 46, 67)   DRY( 46, 68)   DRY( 46, 69)   DRY( 46, 70)   DRY( 46, 71)   
    DRY( 46, 72)   DRY( 46, 73)   DRY( 46, 74)   DRY( 46, 75)   DRY( 46, 76)   
    DRY( 46, 77)   DRY( 46, 78)   DRY( 46, 79)   DRY( 46, 80)   DRY( 46, 81)   
    DRY( 46, 82)   DRY( 46, 83)   DRY( 46, 84)   DRY( 46, 85)   DRY( 46, 86)   
    DRY( 46, 87)   DRY( 46, 88)   DRY( 46, 89)   DRY( 46, 90)   DRY( 46, 91)   
    DRY( 46, 92)   DRY( 46, 93)   DRY( 46, 94)   DRY( 46, 95)   DRY( 46, 96)   
    DRY( 46, 97)   DRY( 46, 98)   DRY( 46, 99)   DRY( 46,100)   DRY( 46,101)   
    DRY( 46,102)   DRY( 46,103)   DRY( 46,104)   DRY( 46,105)   DRY( 46,106)   
    DRY( 46,107)   DRY( 46,108)   DRY( 46,109)   DRY( 46,110)   DRY( 46,111)   
    DRY( 46,112)   DRY( 46,113)   DRY( 46,114)   DRY( 46,115)   DRY( 46,116)   
    DRY( 46,117)   DRY( 46,118)   DRY( 46,119)   DRY( 46,120)   DRY( 46,121)   
    DRY( 46,122)   DRY( 46,123)   DRY( 46,124)   DRY( 46,125)   DRY( 46,126)   
    DRY( 46,127)   DRY( 46,128)   DRY( 46,129)   DRY( 46,130)   DRY( 46,131)   
    DRY( 46,132)   DRY( 46,133)   DRY( 46,134)   DRY( 46,135)   DRY( 46,136)   
    DRY( 46,137)   DRY( 46,138)   DRY( 46,139)   DRY( 46,140)   DRY( 46,141)   
    DRY( 46,142)   DRY( 46,143)   DRY( 46,144)   DRY( 46,145)   DRY( 46,146)   
    DRY( 46,147)   DRY( 46,148)   DRY( 46,149)   DRY( 46,150)   DRY( 46,151)   
    DRY( 46,152)   DRY( 46,153)   DRY( 46,154)   DRY( 46,155)   DRY( 46,156)   
    DRY( 46,157)   DRY( 46,158)   DRY( 46,159)   DRY( 46,160)   DRY( 46,161)   
    DRY( 46,162)   DRY( 46,163)   DRY( 46,164)   DRY( 46,165)   DRY( 46,166)   
    DRY( 46,167)   DRY( 46,168)   DRY( 46,169)   DRY( 46,170)   DRY( 46,171)   
    DRY( 46,172)   DRY( 46,173)   DRY( 46,174)   DRY( 46,175)   DRY( 46,176)   
    DRY( 46,177)   DRY( 46,178)   DRY( 46,179)   DRY( 46,180)   DRY( 46,181)   
    DRY( 46,182)   DRY( 46,183)   DRY( 46,184)   DRY( 46,185)   DRY( 46,186)   
    DRY( 46,187)   DRY( 46,188)   DRY( 46,189)   DRY( 46,190)   DRY( 46,191)   
    DRY( 46,192)   DRY( 46,193)   DRY( 46,194)   DRY( 46,195)   DRY( 46,196)   
    DRY( 46,197)   DRY( 46,198)   DRY( 46,199)   DRY( 46,200)   DRY( 46,201)   
    DRY( 46,202)   DRY( 46,203)   DRY( 46,204)   DRY( 46,205)   DRY( 46,206)   
    DRY( 46,207)   DRY( 46,208)   DRY( 46,209)   DRY( 46,210)   DRY( 46,211)   
    DRY( 46,212)   DRY( 46,213)   DRY( 46,214)   DRY( 46,215)   DRY( 46,216)   
    DRY( 46,217)   DRY( 46,218)   DRY( 46,219)   DRY( 46,220)   DRY( 47,123)   
    DRY( 47,124)   DRY( 47,125)   DRY( 47,126)   DRY( 47,127)   DRY( 47,128)   
    DRY( 47,129)   DRY( 47,130)   DRY( 47,131)   DRY( 47,132)   DRY( 47,133)   
    DRY( 47,134)   DRY( 47,135)   DRY( 47,147)   DRY( 47,148)   DRY( 47,149)   
    DRY( 47,150)   DRY( 47,151)   DRY( 47,152)   DRY( 47,153)   DRY( 47,154)   
    DRY( 47,155)   DRY( 47,156)   DRY( 47,157)   DRY( 47,158)   DRY( 47,159)   
    DRY( 47,160)   DRY( 47,161)   DRY( 47,162)   DRY( 47,163)   DRY( 47,164)   
    DRY( 47,165)   DRY( 47,166)   DRY( 47,167)   DRY( 47,168)   DRY( 47,169)   
    DRY( 47,170)   DRY( 47,171)   DRY( 47,172)   DRY( 47,173)   DRY( 47,174)   
    DRY( 47,175)   DRY( 47,176)   DRY( 47,177)   DRY( 47,178)   DRY( 47,179)   
    DRY( 47,180)   DRY( 47,181)   DRY( 47,182)   DRY( 47,183)   DRY( 47,184)   
    DRY( 47,185)   DRY( 47,186)   DRY( 47,187)   DRY( 47,188)   DRY( 47,189)   
    DRY( 47,190)   DRY( 47,191)   DRY( 47,192)   DRY( 47,193)   DRY( 47,194)   
    DRY( 47,195)   DRY( 47,196)   DRY( 47,197)   DRY( 47,198)   DRY( 47,199)   
    DRY( 47,200)   DRY( 47,201)   DRY( 47,202)   DRY( 47,203)   DRY( 47,204)   
    DRY( 47,205)   DRY( 47,206)   DRY( 47,207)   DRY( 47,208)   DRY( 47,209)   
    DRY( 47,210)   DRY( 47,211)   DRY( 47,212)   DRY( 47,213)   DRY( 47,214)   
    DRY( 47,215)   DRY( 47,216)   DRY( 47,217)   DRY( 47,218)   DRY( 47,219)   
    DRY( 47,220)   DRY( 48,217)   DRY( 48,218)   DRY( 48,219)   DRY( 48,220)   

 CELL CONVERSIONS FOR ITER.=  4  LAYER= 20  STEP=  1  PERIOD=   1   (ROW,COL)
    DRY( 44,  1)   DRY( 44,  2)   DRY( 44,  3)   DRY( 44,  4)   DRY( 44,  5)   
    DRY( 44,  6)   DRY( 44,  7)   DRY( 44,  8)   DRY( 44,  9)   DRY( 44, 10)   
    DRY( 44, 11)   DRY( 44, 12)   DRY( 44, 13)   DRY( 44, 14)   DRY( 44, 15)   
    DRY( 44, 16)   DRY( 44, 17)   DRY( 44, 18)   DRY( 44, 19)   DRY( 44, 20)   
    DRY( 44, 21)   DRY( 44, 22)   DRY( 44, 23)   DRY( 44, 24)   DRY( 44, 25)   
    DRY( 44, 26)   DRY( 44, 27)   DRY( 44, 28)   DRY( 44, 29)   DRY( 44, 30)   
    DRY( 44, 31)   DRY( 44, 32)   DRY( 44, 33)   DRY( 44, 34)   DRY( 44, 35)   
    DRY( 44, 36)   DRY( 44, 37)   DRY( 44, 38)   DRY( 44, 39)   DRY( 44, 40)   
    DRY( 44, 41)   DRY( 44, 42)   DRY( 44, 43)   DRY( 44, 44)   DRY( 44, 45)   
    DRY( 44, 46)   DRY( 44, 47)   DRY( 44, 48)   DRY( 44, 49)   DRY( 44, 50)   
    DRY( 44, 51)   DRY( 44, 52)   DRY( 44, 53)   DRY( 44, 54)   DRY( 44, 55)   
    DRY( 44, 56)   DRY( 44, 57)   DRY( 44, 58)   DRY( 44, 59)   DRY( 44, 60)   
    DRY( 44, 61)   DRY( 44, 62)   DRY( 44, 63)   DRY( 44, 64)   DRY( 44, 65)   
    DRY( 44, 66)   DRY( 44, 67)   DRY( 44, 68)   DRY( 44, 69)   DRY( 44, 70)   
    DRY( 44, 71)   DRY( 44, 72)   DRY( 44, 73)   DRY( 44, 74)   DRY( 44, 75)   
    DRY( 44, 76)   DRY( 44, 77)   DRY( 44, 78)   DRY( 44, 79)   DRY( 44, 80)   
    DRY( 44, 81)   DRY( 44, 82)   DRY( 44, 83)   DRY( 44, 84)   DRY( 44, 85)   
    DRY( 44, 86)   DRY( 44, 87)   DRY( 44, 88)   DRY( 44, 89)   DRY( 44, 90)   
    DRY( 44, 91)   DRY( 44, 92)   DRY( 44, 93)   DRY( 44, 94)   DRY( 44, 95)   
    DRY( 44, 96)   DRY( 44, 97)   DRY( 44, 98)   DRY( 44, 99)   DRY( 44,100)   
    DRY( 44,101)   DRY( 44,102)   DRY( 44,103)   DRY( 44,104)   DRY( 44,105)   
    DRY( 44,106)   DRY( 44,107)   DRY( 44,108)   DRY( 44,109)   DRY( 44,110)   
    DRY( 44,111)   DRY( 44,112)   DRY( 44,113)   DRY( 44,114)   DRY( 44,115)   
    DRY( 44,116)   DRY( 44,117)   DRY( 44,118)   DRY( 44,119)   DRY( 44,120)   
    DRY( 44,121)   DRY( 44,122)   DRY( 44,123)   DRY( 44,124)   DRY( 44,125)   
    DRY( 44,126)   DRY( 44,127)   DRY( 44,128)   DRY( 44,129)   DRY( 44,130)   
    DRY( 44,131)   DRY( 44,132)   DRY( 44,133)   DRY( 44,134)   DRY( 44,135)   
    DRY( 44,136)   DRY( 44,137)   DRY( 44,138)   DRY( 44,139)   DRY( 44,140)   
    DRY( 44,141)   DRY( 44,142)   DRY( 44,143)   DRY( 44,144)   DRY( 44,145)   
    DRY( 44,146)   DRY( 44,147)   DRY( 44,148)   DRY( 44,149)   DRY( 44,150)   
    DRY( 44,151)   DRY( 44,152)   DRY( 44,153)   DRY( 44,154)   DRY( 44,155)   
    DRY( 44,156)   DRY( 44,157)   DRY( 44,158)   DRY( 44,159)   DRY( 44,160)   
    DRY( 44,161)   DRY( 44,162)   DRY( 44,163)   DRY( 44,164)   DRY( 44,165)   
    DRY( 44,166)   DRY( 44,167)   DRY( 44,168)   DRY( 44,169)   DRY( 44,170)   
    DRY( 44,171)   DRY( 44,172)   DRY( 44,173)   DRY( 44,174)   DRY( 44,175)   
    DRY( 44,176)   DRY( 44,177)   DRY( 44,178)   DRY( 44,179)   DRY( 44,180)   
    DRY( 44,181)   DRY( 44,182)   DRY( 44,183)   DRY( 44,184)   DRY( 44,185)   
    DRY( 44,186)   DRY( 44,187)   DRY( 44,188)   DRY( 44,189)   DRY( 44,190)   
    DRY( 44,191)   DRY( 44,192)   DRY( 44,193)   DRY( 44,194)   DRY( 44,195)   
    DRY( 44,196)   DRY( 44,197)   DRY( 44,198)   DRY( 44,199)   DRY( 44,200)   
    DRY( 44,201)   DRY( 44,202)   DRY( 44,203)   DRY( 44,204)   DRY( 44,205)   
    DRY( 44,206)   DRY( 44,207)   DRY( 44,208)   DRY( 44,209)   DRY( 44,210)   
    DRY( 44,211)   DRY( 44,212)   DRY( 44,217)   DRY( 44,218)   DRY( 44,219)   
    DRY( 44,220)   DRY( 45,  1)   DRY( 45,  2)   DRY( 45,  3)   DRY( 45,  4)   
    DRY( 45,  5)   DRY( 45,  6)   DRY( 45,  7)   DRY( 45,  8)   DRY( 45,  9)   
    DRY( 45, 10)   DRY( 45, 11)   DRY( 45, 12)   DRY( 45, 13)   DRY( 45, 14)   
    DRY( 45, 15)   DRY( 45, 16)   DRY( 45, 17)   DRY( 45, 18)   DRY( 45, 19)   
    DRY( 45, 20)   DRY( 45, 21)   DRY( 45, 22)   DRY( 45, 23)   DRY( 45, 24)   
    DRY( 45, 25)   DRY( 45, 26)   DRY( 45, 27)   DRY( 45, 28)   DRY( 45, 29)   
    DRY( 45, 30)   DRY( 45, 31)   DRY( 45, 32)   DRY( 45, 33)   DRY( 45, 34)   
    DRY( 45, 35)   DRY( 45, 36)   DRY( 45, 37)   DRY( 45, 38)   DRY( 45, 39)   
    DRY( 45, 40)   DRY( 45, 41)   DRY( 45, 42)   DRY( 45, 43)   DRY( 45, 44)   
    DRY( 45, 45)   DRY( 45, 46)   DRY( 45, 47)   DRY( 45, 48)   DRY( 45, 49)   
    DRY( 45, 50)   DRY( 45, 51)   DRY( 45, 52)   DRY( 45, 53)   DRY( 45, 54)   
    DRY( 45, 55)   DRY( 45, 56)   DRY( 45, 57)   DRY( 45, 58)   DRY( 45, 59)   
    DRY( 45, 60)   DRY( 45, 61)   DRY( 45, 62)   DRY( 45, 63)   DRY( 45, 64)   
    DRY( 45, 65)   DRY( 45, 66)   DRY( 45, 67)   DRY( 45, 68)   DRY( 45, 69)   
    DRY( 45, 70)   DRY( 45, 71)   DRY( 45, 72)   DRY( 45, 73)   DRY( 45, 74)   
    DRY( 45, 75)   DRY( 45, 76)   DRY( 45, 77)   DRY( 45, 78)   DRY( 45, 79)   
    DRY( 45, 80)   DRY( 45, 81)   DRY( 45, 82)   DRY( 45, 83)   DRY( 45, 84)   
    DRY( 45, 85)   DRY( 45, 86)   DRY( 45, 87)   DRY( 45, 88)   DRY( 45, 89)   
    DRY( 45, 90)   DRY( 45, 91)   DRY( 45, 92)   DRY( 45, 93)   DRY( 45, 94)   
    DRY( 45, 95)   DRY( 45, 96)   DRY( 45, 97)   DRY( 45, 98)   DRY( 45, 99)   
    DRY( 45,100)   DRY( 45,101)   DRY( 45,102)   DRY( 45,103)   DRY( 45,104)   
    DRY( 45,105)   DRY( 45,106)   DRY( 45,107)   DRY( 45,108)   DRY( 45,109)   
    DRY( 45,110)   DRY( 45,111)   DRY( 45,112)   DRY( 45,113)   DRY( 45,114)   
    DRY( 45,115)   DRY( 45,116)   DRY( 45,117)   DRY( 45,118)   DRY( 45,119)   
    DRY( 45,120)   DRY( 45,121)   DRY( 45,122)   DRY( 45,123)   DRY( 45,124)   
    DRY( 45,125)   DRY( 45,126)   DRY( 45,127)   DRY( 45,128)   DRY( 45,129)   
    DRY( 45,130)   DRY( 45,131)   DRY( 45,132)   DRY( 45,133)   DRY( 45,134)   
    DRY( 45,135)   DRY( 45,136)   DRY( 45,137)   DRY( 45,138)   DRY( 45,139)   
    DRY( 45,140)   DRY( 45,141)   DRY( 45,142)   DRY( 45,143)   DRY( 45,144)   
    DRY( 45,145)   DRY( 45,146)   DRY( 45,147)   DRY( 45,148)   DRY( 45,149)   
    DRY( 45,150)   DRY( 45,151)   DRY( 45,152)   DRY( 45,153)   DRY( 45,154)   
    DRY( 45,155)   DRY( 45,156)   DRY( 45,157)   DRY( 45,158)   DRY( 45,159)   
    DRY( 45,160)   DRY( 45,161)   DRY( 45,162)   DRY( 45,163)   DRY( 45,164)   
    DRY( 45,165)   DRY( 45,166)   DRY( 45,167)   DRY( 45,168)   DRY( 45,169)   
    DRY( 45,170)   DRY( 45,171)   DRY( 45,172)   DRY( 45,173)   DRY( 45,174)   
    DRY( 45,175)   DRY( 45,176)   DRY( 45,177)   DRY( 45,178)   DRY( 45,179)   
    DRY( 45,180)   DRY( 45,181)   DRY( 45,182)   DRY( 45,183)   DRY( 45,184)   
    DRY( 45,185)   DRY( 45,186)   DRY( 45,187)   DRY( 45,188)   DRY( 45,189)   
    DRY( 45,190)   DRY( 45,191)   DRY( 45,192)   DRY( 45,193)   DRY( 45,194)   
    DRY( 45,195)   DRY( 45,196)   DRY( 45,197)   DRY( 45,198)   DRY( 45,199)   
    DRY( 45,200)   DRY( 45,201)   DRY( 45,202)   DRY( 45,203)   DRY( 45,204)   
    DRY( 45,205)   DRY( 45,206)   DRY( 45,207)   DRY( 45,208)   DRY( 45,209)   
    DRY( 45,210)   DRY( 45,211)   DRY( 45,212)   DRY( 45,213)   DRY( 45,214)   
    DRY( 45,215)   DRY( 45,216)   DRY( 45,217)   DRY( 45,218)   DRY( 45,219)   
    DRY( 45,220)   DRY( 46,  1)   DRY( 46,  2)   DRY( 46,  3)   DRY( 46,  4)   
    DRY( 46,  5)   DRY( 46,  6)   DRY( 46,  7)   DRY( 46,  8)   DRY( 46,  9)   
    DRY( 46, 10)   DRY( 46, 11)   DRY( 46, 12)   DRY( 46, 13)   DRY( 46, 14)   
    DRY( 46, 15)   DRY( 46, 16)   DRY( 46, 17)   DRY( 46, 18)   DRY( 46, 19)   
    DRY( 46, 20)   DRY( 46, 21)   DRY( 46, 22)   DRY( 46, 23)   DRY( 46, 24)   
    DRY( 46, 25)   DRY( 46, 26)   DRY( 46, 27)   DRY( 46, 28)   DRY( 46, 29)   
    DRY( 46, 30)   DRY( 46, 31)   DRY( 46, 32)   DRY( 46, 33)   DRY( 46, 34)   
    DRY( 46, 35)   DRY( 46, 36)   DRY( 46, 37)   DRY( 46, 38)   DRY( 46, 39)   
    DRY( 46, 40)   DRY( 46, 41)   DRY( 46, 42)   DRY( 46, 43)   DRY( 46, 44)   
    DRY( 46, 45)   DRY( 46, 46)   DRY( 46, 47)   DRY( 46, 48)   DRY( 46, 49)   
    DRY( 46, 50)   DRY( 46, 51)   DRY( 46, 52)   DRY( 46, 53)   DRY( 46, 54)   
    DRY( 46, 55)   DRY( 46, 56)   DRY( 46, 57)   DRY( 46, 58)   DRY( 46, 59)   
    DRY( 46, 60)   DRY( 46, 61)   DRY( 46, 62)   DRY( 46, 63)   DRY( 46, 64)   
    DRY( 46, 65)   DRY( 46, 66)   DRY( 46, 67)   DRY( 46, 68)   DRY( 46, 69)   
    DRY( 46, 70)   DRY( 46, 71)   DRY( 46, 72)   DRY( 46, 73)   DRY( 46, 74)   
    DRY( 46, 75)   DRY( 46, 76)   DRY( 46, 77)   DRY( 46, 78)   DRY( 46, 79)   
    DRY( 46, 80)   DRY( 46, 81)   DRY( 46, 82)   DRY( 46, 83)   DRY( 46, 84)   
    DRY( 46, 85)   DRY( 46, 86)   DRY( 46, 87)   DRY( 46, 88)   DRY( 46, 89)   
    DRY( 46, 90)   DRY( 46, 91)   DRY( 46, 92)   DRY( 46, 93)   DRY( 46, 94)   
    DRY( 46, 95)   DRY( 46, 96)   DRY( 46, 97)   DRY( 46, 98)   DRY( 46, 99)   
    DRY( 46,100)   DRY( 46,101)   DRY( 46,102)   DRY( 46,103)   DRY( 46,104)   
    DRY( 46,105)   DRY( 46,106)   DRY( 46,107)   DRY( 46,108)   DRY( 46,109)   
    DRY( 46,110)   DRY( 46,111)   DRY( 46,112)   DRY( 46,113)   DRY( 46,114)   
    DRY( 46,115)   DRY( 46,116)   DRY( 46,117)   DRY( 46,118)   DRY( 46,119)   
    DRY( 46,120)   DRY( 46,121)   DRY( 46,122)   DRY( 46,123)   DRY( 46,124)   
    DRY( 46,125)   DRY( 46,126)   DRY( 46,127)   DRY( 46,128)   DRY( 46,129)   
    DRY( 46,130)   DRY( 46,131)   DRY( 46,132)   DRY( 46,133)   DRY( 46,134)   
    DRY( 46,135)   DRY( 46,136)   DRY( 46,137)   DRY( 46,138)   DRY( 46,139)   
    DRY( 46,140)   DRY( 46,141)   DRY( 46,142)   DRY( 46,143)   DRY( 46,144)   
    DRY( 46,145)   DRY( 46,146)   DRY( 46,147)   DRY( 46,148)   DRY( 46,149)   
    DRY( 46,150)   DRY( 46,151)   DRY( 46,152)   DRY( 46,153)   DRY( 46,154)   
    DRY( 46,155)   DRY( 46,156)   DRY( 46,157)   DRY( 46,158)   DRY( 46,159)   
    DRY( 46,160)   DRY( 46,161)   DRY( 46,162)   DRY( 46,163)   DRY( 46,164)   
    DRY( 46,165)   DRY( 46,166)   DRY( 46,167)   DRY( 46,168)   DRY( 46,169)   
    DRY( 46,170)   DRY( 46,171)   DRY( 46,172)   DRY( 46,173)   DRY( 46,174)   
    DRY( 46,175)   DRY( 46,176)   DRY( 46,177)   DRY( 46,178)   DRY( 46,179)   
    DRY( 46,180)   DRY( 46,181)   DRY( 46,182)   DRY( 46,183)   DRY( 46,184)   
    DRY( 46,185)   DRY( 46,186)   DRY( 46,187)   DRY( 46,188)   DRY( 46,189)   
    DRY( 46,190)   DRY( 46,191)   DRY( 46,192)   DRY( 46,193)   DRY( 46,194)   
    DRY( 46,195)   DRY( 46,196)   DRY( 46,197)   DRY( 46,198)   DRY( 46,199)   
    DRY( 46,200)   DRY( 46,201)   DRY( 46,202)   DRY( 46,203)   DRY( 46,204)   
    DRY( 46,205)   DRY( 46,206)   DRY( 46,207)   DRY( 46,208)   DRY( 46,209)   
    DRY( 46,210)   DRY( 46,211)   DRY( 46,212)   DRY( 46,213)   DRY( 46,214)   
    DRY( 46,215)   DRY( 46,216)   DRY( 46,217)   DRY( 46,218)   DRY( 46,219)   
    DRY( 46,220)   DRY( 47,  1)   DRY( 47,  2)   DRY( 47,  3)   DRY( 47,  4)   
    DRY( 47,  5)   DRY( 47,  6)   DRY( 47,  7)   DRY( 47,  8)   DRY( 47,  9)   
    DRY( 47, 10)   DRY( 47, 11)   DRY( 47, 12)   DRY( 47, 13)   DRY( 47, 14)   
    DRY( 47, 15)   DRY( 47, 16)   DRY( 47, 17)   DRY( 47, 18)   DRY( 47, 19)   
    DRY( 47, 20)   DRY( 47, 21)   DRY( 47, 22)   DRY( 47, 23)   DRY( 47, 24)   
    DRY( 47, 25)   DRY( 47, 26)   DRY( 47, 27)   DRY( 47, 28)   DRY( 47, 29)   
    DRY( 47, 30)   DRY( 47, 31)   DRY( 47, 32)   DRY( 47, 33)   DRY( 47, 34)   
    DRY( 47, 35)   DRY( 47, 36)   DRY( 47, 37)   DRY( 47, 38)   DRY( 47, 39)   
    DRY( 47, 40)   DRY( 47, 41)   DRY( 47, 42)   DRY( 47, 43)   DRY( 47, 44)   
    DRY( 47, 45)   DRY( 47, 46)   DRY( 47, 47)   DRY( 47, 48)   DRY( 47, 49)   
    DRY( 47, 50)   DRY( 47, 51)   DRY( 47, 52)   DRY( 47, 53)   DRY( 47, 54)   
    DRY( 47, 55)   DRY( 47, 56)   DRY( 47, 57)   DRY( 47, 58)   DRY( 47, 59)   
    DRY( 47, 60)   DRY( 47, 61)   DRY( 47, 62)   DRY( 47, 63)   DRY( 47, 64)   
    DRY( 47, 65)   DRY( 47, 66)   DRY( 47, 67)   DRY( 47, 68)   DRY( 47, 69)   
    DRY( 47, 70)   DRY( 47, 71)   DRY( 47, 72)   DRY( 47, 73)   DRY( 47, 74)   
    DRY( 47, 75)   DRY( 47, 76)   DRY( 47, 77)   DRY( 47, 78)   DRY( 47, 79)   
    DRY( 47, 80)   DRY( 47, 81)   DRY( 47, 82)   DRY( 47, 83)   DRY( 47, 84)   
    DRY( 47, 85)   DRY( 47, 86)   DRY( 47, 87)   DRY( 47, 88)   DRY( 47, 89)   
    DRY( 47, 90)   DRY( 47, 91)   DRY( 47, 92)   DRY( 47, 93)   DRY( 47, 94)   
    DRY( 47, 95)   DRY( 47, 96)   DRY( 47, 97)   DRY( 47, 98)   DRY( 47, 99)   
    DRY( 47,100)   DRY( 47,101)   DRY( 47,102)   DRY( 47,103)   DRY( 47,104)   
    DRY( 47,105)   DRY( 47,106)   DRY( 47,107)   DRY( 47,108)   DRY( 47,109)   
    DRY( 47,110)   DRY( 47,111)   DRY( 47,112)   DRY( 47,113)   DRY( 47,114)   
    DRY( 47,115)   DRY( 47,116)   DRY( 47,117)   DRY( 47,118)   DRY( 47,119)   
    DRY( 47,120)   DRY( 47,121)   DRY( 47,122)   DRY( 47,123)   DRY( 47,124)   
    DRY( 47,125)   DRY( 47,126)   DRY( 47,127)   DRY( 47,128)   DRY( 47,129)   
    DRY( 47,130)   DRY( 47,131)   DRY( 47,132)   DRY( 47,133)   DRY( 47,134)   
    DRY( 47,135)   DRY( 47,136)   DRY( 47,137)   DRY( 47,138)   DRY( 47,139)   
    DRY( 47,140)   DRY( 47,141)   DRY( 47,142)   DRY( 47,143)   DRY( 47,144)   
    DRY( 47,145)   DRY( 47,146)   DRY( 47,147)   DRY( 47,148)   DRY( 47,149)   
    DRY( 47,150)   DRY( 47,151)   DRY( 47,152)   DRY( 47,153)   DRY( 47,154)   
    DRY( 47,155)   DRY( 47,156)   DRY( 47,157)   DRY( 47,158)   DRY( 47,159)   
    DRY( 47,160)   DRY( 47,161)   DRY( 47,162)   DRY( 47,163)   DRY( 47,164)   
    DRY( 47,165)   DRY( 47,166)   DRY( 47,167)   DRY( 47,168)   DRY( 47,169)   
    DRY( 47,170)   DRY( 47,171)   DRY( 47,172)   DRY( 47,173)   DRY( 47,174)   
    DRY( 47,175)   DRY( 47,176)   DRY( 47,177)   DRY( 47,178)   DRY( 47,179)   
    DRY( 47,180)   DRY( 47,181)   DRY( 47,182)   DRY( 47,183)   DRY( 47,184)   
    DRY( 47,185)   DRY( 47,186)   DRY( 47,187)   DRY( 47,188)   DRY( 47,189)   
    DRY( 47,190)   DRY( 47,191)   DRY( 47,192)   DRY( 47,193)   DRY( 47,194)   
    DRY( 47,195)   DRY( 47,196)   DRY( 47,197)   DRY( 47,198)   DRY( 47,199)   
    DRY( 47,200)   DRY( 47,201)   DRY( 47,202)   DRY( 47,203)   DRY( 47,204)   
    DRY( 47,205)   DRY( 47,206)   DRY( 47,207)   DRY( 47,208)   DRY( 47,209)   
    DRY( 47,210)   DRY( 47,211)   DRY( 47,212)   DRY( 47,213)   DRY( 47,214)   
    DRY( 47,215)   DRY( 47,216)   DRY( 47,217)   DRY( 47,218)   DRY( 47,219)   
    DRY( 47,220)   DRY( 48,  1)   DRY( 48,  2)   DRY( 48,  3)   DRY( 48,  4)   
    DRY( 48,  5)   DRY( 48,  6)   DRY( 48,  7)   DRY( 48,  8)   DRY( 48,  9)   
    DRY( 48, 10)   DRY( 48, 11)   DRY( 48, 12)   DRY( 48, 13)   DRY( 48, 14)   
    DRY( 48, 15)   DRY( 48, 16)   DRY( 48, 17)   DRY( 48, 18)   DRY( 48, 19)   
    DRY( 48, 20)   DRY( 48, 21)   DRY( 48, 22)   DRY( 48, 23)   DRY( 48, 24)   
    DRY( 48, 25)   DRY( 48, 26)   DRY( 48, 27)   DRY( 48, 28)   DRY( 48, 29)   
    DRY( 48, 30)   DRY( 48, 31)   DRY( 48, 32)   DRY( 48, 33)   DRY( 48, 34)   
    DRY( 48, 35)   DRY( 48, 36)   DRY( 48, 37)   DRY( 48, 38)   DRY( 48, 39)   
    DRY( 48, 40)   DRY( 48, 41)   DRY( 48, 42)   DRY( 48, 43)   DRY( 48, 44)   
    DRY( 48, 45)   DRY( 48, 46)   DRY( 48, 47)   DRY( 48, 48)   DRY( 48, 49)   
    DRY( 48, 50)   DRY( 48, 51)   DRY( 48, 52)   DRY( 48, 53)   DRY( 48, 54)   
    DRY( 48, 55)   DRY( 48, 56)   DRY( 48, 57)   DRY( 48, 58)   DRY( 48, 59)   
    DRY( 48, 60)   DRY( 48, 61)   DRY( 48, 62)   DRY( 48, 63)   DRY( 48, 64)   
    DRY( 48, 65)   DRY( 48, 66)   DRY( 48, 67)   DRY( 48, 68)   DRY( 48, 69)   
    DRY( 48, 70)   DRY( 48, 71)   DRY( 48, 72)   DRY( 48, 73)   DRY( 48, 74)   
    DRY( 48, 75)   DRY( 48, 76)   DRY( 48, 77)   DRY( 48, 78)   DRY( 48, 79)   
    DRY( 48, 80)   DRY( 48, 81)   DRY( 48, 82)   DRY( 48, 83)   DRY( 48, 84)   
    DRY( 48, 85)   DRY( 48, 86)   DRY( 48, 87)   DRY( 48, 88)   DRY( 48, 89)   
    DRY( 48, 90)   DRY( 48, 91)   DRY( 48, 92)   DRY( 48, 93)   DRY( 48, 94)   
    DRY( 48, 95)   DRY( 48, 96)   DRY( 48, 97)   DRY( 48, 98)   DRY( 48, 99)   
    DRY( 48,100)   DRY( 48,101)   DRY( 48,102)   DRY( 48,103)   DRY( 48,104)   
    DRY( 48,105)   DRY( 48,106)   DRY( 48,107)   DRY( 48,108)   DRY( 48,109)   
    DRY( 48,110)   DRY( 48,111)   DRY( 48,112)   DRY( 48,113)   DRY( 48,114)   
    DRY( 48,115)   DRY( 48,116)   DRY( 48,117)   DRY( 48,118)   DRY( 48,119)   
    DRY( 48,120)   DRY( 48,121)   DRY( 48,122)   DRY( 48,123)   DRY( 48,124)   
    DRY( 48,125)   DRY( 48,126)   DRY( 48,127)   DRY( 48,128)   DRY( 48,129)   
    DRY( 48,130)   DRY( 48,131)   DRY( 48,132)   DRY( 48,133)   DRY( 48,134)   
    DRY( 48,135)   DRY( 48,136)   DRY( 48,137)   DRY( 48,138)   DRY( 48,139)   
    DRY( 48,140)   DRY( 48,141)   DRY( 48,142)   DRY( 48,143)   DRY( 48,144)   
    DRY( 48,145)   DRY( 48,146)   DRY( 48,147)   DRY( 48,148)   DRY( 48,149)   
    DRY( 48,150)   DRY( 48,151)   DRY( 48,152)   DRY( 48,153)   DRY( 48,154)   
    DRY( 48,155)   DRY( 48,156)   DRY( 48,157)   DRY( 48,158)   DRY( 48,159)   
    DRY( 48,160)   DRY( 48,161)   DRY( 48,162)   DRY( 48,163)   DRY( 48,164)   
    DRY( 48,165)   DRY( 48,166)   DRY( 48,167)   DRY( 48,168)   DRY( 48,169)   
    DRY( 48,170)   DRY( 48,171)   DRY( 48,172)   DRY( 48,173)   DRY( 48,174)   
    DRY( 48,175)   DRY( 48,176)   DRY( 48,177)   DRY( 48,178)   DRY( 48,179)   
    DRY( 48,180)   DRY( 48,181)   DRY( 48,182)   DRY( 48,183)   DRY( 48,184)   
    DRY( 48,185)   DRY( 48,186)   DRY( 48,187)   DRY( 48,188)   DRY( 48,189)   
    DRY( 48,190)   DRY( 48,191)   DRY( 48,192)   DRY( 48,193)   DRY( 48,194)   
    DRY( 48,195)   DRY( 48,196)   DRY( 48,197)   DRY( 48,198)   DRY( 48,199)   
    DRY( 48,200)   DRY( 48,201)   DRY( 48,202)   DRY( 48,203)   DRY( 48,204)   
    DRY( 48,205)   DRY( 48,206)   DRY( 48,207)   DRY( 48,208)   DRY( 48,209)   
    DRY( 48,210)   DRY( 48,211)   DRY( 48,212)   DRY( 48,213)   DRY( 48,214)   
    DRY( 48,215)   DRY( 48,216)   DRY( 48,217)   DRY( 48,218)   DRY( 48,219)   
    DRY( 48,220)   DRY( 49,  1)   DRY( 49,  2)   DRY( 49,  3)   DRY( 49,  4)   
    DRY( 49,  5)   DRY( 49,  6)   DRY( 49,  7)   DRY( 49,  8)   DRY( 49,  9)   
    DRY( 49, 10)   DRY( 49, 11)   DRY( 49, 12)   DRY( 49, 13)   DRY( 49, 14)   
    DRY( 49, 15)   DRY( 49, 16)   DRY( 49, 17)   DRY( 49, 18)   DRY( 49, 19)   
    DRY( 49, 20)   DRY( 49, 21)   DRY( 49, 22)   DRY( 49, 23)   DRY( 49, 24)   
    DRY( 49, 25)   DRY( 49, 26)   DRY( 49, 27)   DRY( 49, 28)   DRY( 49, 29)   
    DRY( 49, 30)   DRY( 49, 31)   DRY( 49, 32)   DRY( 49, 33)   DRY( 49, 34)   
    DRY( 49, 35)   DRY( 49, 36)   DRY( 49, 37)   DRY( 49, 38)   DRY( 49, 39)   
    DRY( 49, 40)   DRY( 49, 41)   DRY( 49, 42)   DRY( 49, 43)   DRY( 49, 44)   
    DRY( 49, 45)   DRY( 49, 46)   DRY( 49, 47)   DRY( 49, 48)   DRY( 49, 49)   
    DRY( 49, 50)   DRY( 49, 51)   DRY( 49, 52)   DRY( 49, 53)   DRY( 49, 54)   
    DRY( 49, 55)   DRY( 49, 56)   DRY( 49, 57)   DRY( 49, 58)   DRY( 49, 59)   
    DRY( 49, 60)   DRY( 49, 61)   DRY( 49, 62)   DRY( 49, 63)   DRY( 49, 64)   
    DRY( 49, 65)   DRY( 49, 66)   DRY( 49, 67)   DRY( 49, 68)   DRY( 49, 69)   
    DRY( 49, 70)   DRY( 49, 71)   DRY( 49, 72)   DRY( 49, 73)   DRY( 49, 74)   
    DRY( 49, 75)   DRY( 49, 76)   DRY( 49, 77)   DRY( 49, 78)   DRY( 49, 79)   
    DRY( 49, 80)   DRY( 49, 81)   DRY( 49, 82)   DRY( 49, 83)   DRY( 49, 84)   
    DRY( 49, 85)   DRY( 49, 86)   DRY( 49, 87)   DRY( 49, 88)   DRY( 49, 89)   
    DRY( 49, 90)   DRY( 49, 91)   DRY( 49, 92)   DRY( 49, 93)   DRY( 49, 94)   
    DRY( 49, 95)   DRY( 49, 96)   DRY( 49, 97)   DRY( 49, 98)   DRY( 49, 99)   
    DRY( 49,100)   DRY( 49,101)   DRY( 49,102)   DRY( 49,103)   DRY( 49,104)   
    DRY( 49,105)   DRY( 49,106)   DRY( 49,107)   DRY( 49,108)   DRY( 49,109)   
    DRY( 49,110)   DRY( 49,111)   DRY( 49,112)   DRY( 49,113)   DRY( 49,114)   
    DRY( 49,115)   DRY( 49,116)   DRY( 49,117)   DRY( 49,118)   DRY( 49,119)   
    DRY( 49,120)   DRY( 49,121)   DRY( 49,122)   DRY( 49,123)   DRY( 49,124)   
    DRY( 49,125)   DRY( 49,126)   DRY( 49,127)   DRY( 49,128)   DRY( 49,129)   
    DRY( 49,130)   DRY( 49,131)   DRY( 49,132)   DRY( 49,133)   DRY( 49,134)   
    DRY( 49,135)   DRY( 49,136)   DRY( 49,137)   DRY( 49,138)   DRY( 49,139)   
    DRY( 49,140)   DRY( 49,141)   DRY( 49,142)   DRY( 49,143)   DRY( 49,144)   
    DRY( 49,145)   DRY( 49,146)   DRY( 49,147)   DRY( 49,148)   DRY( 49,149)   
    DRY( 49,150)   DRY( 49,151)   DRY( 49,152)   DRY( 49,153)   DRY( 49,154)   
    DRY( 49,155)   DRY( 49,156)   DRY( 49,157)   DRY( 49,158)   DRY( 49,159)   
    DRY( 49,160)   DRY( 49,161)   DRY( 49,162)   DRY( 49,163)   DRY( 49,164)   
    DRY( 49,165)   DRY( 49,166)   DRY( 49,167)   DRY( 49,168)   DRY( 49,169)   
    DRY( 49,170)   DRY( 49,171)   DRY( 49,172)   DRY( 49,173)   DRY( 49,174)   
    DRY( 49,175)   DRY( 49,176)   DRY( 49,177)   DRY( 49,178)   DRY( 49,179)   
    DRY( 49,180)   DRY( 49,181)   DRY( 49,182)   DRY( 49,183)   DRY( 49,184)   
    DRY( 49,185)   DRY( 49,186)   DRY( 49,187)   DRY( 49,188)   DRY( 49,189)   
    DRY( 49,190)   DRY( 49,191)   DRY( 49,192)   DRY( 49,193)   DRY( 49,194)   
    DRY( 49,195)   DRY( 49,196)   DRY( 49,197)   DRY( 49,198)   DRY( 49,199)   
    DRY( 49,200)   DRY( 49,201)   DRY( 49,202)   DRY( 49,203)   DRY( 49,204)   
    DRY( 49,205)   DRY( 49,206)   DRY( 49,207)   DRY( 49,208)   DRY( 49,209)   
    DRY( 49,210)   DRY( 49,211)   DRY( 49,212)   DRY( 49,213)   DRY( 49,214)   
    DRY( 49,215)   DRY( 49,216)   DRY( 49,217)   DRY( 49,218)   DRY( 49,219)   
    DRY( 49,220)   DRY( 50, 33)   DRY( 50, 34)   DRY( 50, 35)   DRY( 50, 36)   
    DRY( 50, 37)   DRY( 50, 38)   DRY( 50, 39)   DRY( 50, 40)   DRY( 50, 41)   
    DRY( 50, 42)   DRY( 50, 43)   DRY( 50, 44)   DRY( 50, 45)   DRY( 50, 46)   
    DRY( 50, 47)   DRY( 50, 48)   DRY( 50, 49)   DRY( 50, 50)   DRY( 50, 51)   
    DRY( 50, 52)   DRY( 50, 53)   DRY( 50, 54)   DRY( 50, 55)   DRY( 50, 56)   
    DRY( 50, 57)   DRY( 50, 58)   DRY( 50, 59)   DRY( 50, 60)   DRY( 50, 61)   
    DRY( 50, 62)   DRY( 50, 63)   DRY( 50, 64)   DRY( 50, 65)   DRY( 50, 66)   
    DRY( 50, 67)   DRY( 50, 68)   DRY( 50, 69)   DRY( 50, 70)   DRY( 50, 71)   
    DRY( 50, 72)   DRY( 50, 73)   DRY( 50, 74)   DRY( 50, 75)   DRY( 50, 76)   
    DRY( 50, 77)   DRY( 50, 78)   DRY( 50, 79)   DRY( 50, 80)   DRY( 50, 81)   
    DRY( 50, 82)   DRY( 50, 83)   DRY( 50, 84)   DRY( 50, 85)   DRY( 50, 86)   
    DRY( 50, 87)   DRY( 50, 88)   DRY( 50, 89)   DRY( 50, 90)   DRY( 50, 91)   
    DRY( 50, 92)   DRY( 50, 93)   DRY( 50, 94)   DRY( 50, 95)   DRY( 50, 96)   
    DRY( 50, 97)   DRY( 50, 98)   DRY( 50, 99)   DRY( 50,100)   DRY( 50,101)   
    DRY( 50,102)   DRY( 50,103)   DRY( 50,104)   DRY( 50,105)   DRY( 50,106)   
    DRY( 50,107)   DRY( 50,108)   DRY( 50,109)   DRY( 50,110)   DRY( 50,111)   
    DRY( 50,112)   DRY( 50,113)   DRY( 50,114)   DRY( 50,115)   DRY( 50,116)   
    DRY( 50,117)   DRY( 50,118)   DRY( 50,119)   DRY( 50,120)   DRY( 50,121)   
    DRY( 50,122)   DRY( 50,123)   DRY( 50,124)   DRY( 50,125)   DRY( 50,126)   
    DRY( 50,127)   DRY( 50,128)   DRY( 50,129)   DRY( 50,130)   DRY( 50,131)   
    DRY( 50,132)   DRY( 50,133)   DRY( 50,134)   DRY( 50,135)   DRY( 50,136)   
    DRY( 50,137)   DRY( 50,138)   DRY( 50,139)   DRY( 50,140)   DRY( 50,141)   
    DRY( 50,142)   DRY( 50,143)   DRY( 50,144)   DRY( 50,145)   DRY( 50,146)   
    DRY( 50,147)   DRY( 50,148)   DRY( 50,149)   DRY( 50,150)   DRY( 50,151)   
    DRY( 50,152)   DRY( 50,153)   DRY( 50,154)   DRY( 50,155)   DRY( 50,156)   
    DRY( 50,157)   DRY( 50,158)   DRY( 50,159)   DRY( 50,160)   DRY( 50,161)   
    DRY( 50,162)   DRY( 50,163)   DRY( 50,164)   DRY( 50,165)   DRY( 50,166)   
    DRY( 50,167)   DRY( 50,168)   DRY( 50,169)   DRY( 50,170)   DRY( 50,171)   
    DRY( 50,172)   DRY( 50,173)   DRY( 50,174)   DRY( 50,175)   DRY( 50,176)   
    DRY( 50,177)   DRY( 50,178)   DRY( 50,179)   DRY( 50,180)   DRY( 50,181)   
    DRY( 50,182)   DRY( 50,183)   DRY( 50,184)   DRY( 50,185)   DRY( 50,186)   
    DRY( 50,187)   DRY( 50,188)   DRY( 50,189)   DRY( 50,190)   DRY( 50,191)   
    DRY( 50,192)   DRY( 50,193)   DRY( 50,194)   DRY( 50,195)   DRY( 50,196)   
    DRY( 50,197)   DRY( 50,198)   DRY( 50,199)   DRY( 50,200)   DRY( 50,201)   
    DRY( 50,202)   DRY( 50,203)   DRY( 50,204)   DRY( 50,205)   DRY( 50,206)   
    DRY( 50,207)   DRY( 50,208)   DRY( 50,209)   DRY( 50,210)   DRY( 50,211)   
    DRY( 50,212)   DRY( 50,213)   DRY( 50,214)   DRY( 50,215)   DRY( 50,216)   
    DRY( 50,217)   DRY( 50,218)   DRY( 50,219)   DRY( 50,220)   DRY( 51, 97)   
    DRY( 51, 98)   DRY( 51, 99)   DRY( 51,100)   DRY( 51,101)   DRY( 51,102)   
    DRY( 51,103)   DRY( 51,104)   DRY( 51,105)   DRY( 51,106)   DRY( 51,107)   
    DRY( 51,108)   DRY( 51,109)   DRY( 51,110)   DRY( 51,111)   DRY( 51,112)   
    DRY( 51,113)   DRY( 51,114)   DRY( 51,115)   DRY( 51,116)   DRY( 51,117)   
    DRY( 51,118)   DRY( 51,119)   DRY( 51,120)   DRY( 51,121)   DRY( 51,122)   
    DRY( 51,123)   DRY( 51,124)   DRY( 51,125)   DRY( 51,126)   DRY( 51,127)   
    DRY( 51,128)   DRY( 51,129)   DRY( 51,130)   DRY( 51,131)   DRY( 51,132)   
    DRY( 51,133)   DRY( 51,134)   DRY( 51,135)   DRY( 51,136)   DRY( 51,137)   
    DRY( 51,138)   DRY( 51,139)   DRY( 51,140)   DRY( 51,141)   DRY( 51,142)   
    DRY( 51,143)   DRY( 51,144)   DRY( 51,145)   DRY( 51,146)   DRY( 51,147)   
    DRY( 51,148)   DRY( 51,149)   DRY( 51,150)   DRY( 51,151)   DRY( 51,152)   
    DRY( 51,153)   DRY( 51,154)   DRY( 51,155)   DRY( 51,156)   DRY( 51,157)   
    DRY( 51,158)   DRY( 51,159)   DRY( 51,160)   DRY( 51,161)   DRY( 51,162)   
    DRY( 51,163)   DRY( 51,164)   DRY( 51,165)   DRY( 51,166)   DRY( 51,167)   
    DRY( 51,168)   DRY( 51,169)   DRY( 51,170)   DRY( 51,171)   DRY( 51,172)   
    DRY( 51,173)   DRY( 51,174)   DRY( 51,175)   DRY( 51,176)   DRY( 51,177)   
    DRY( 51,178)   DRY( 51,179)   DRY( 51,180)   DRY( 51,181)   DRY( 51,182)   
    DRY( 51,183)   DRY( 51,184)   DRY( 51,185)   DRY( 51,186)   DRY( 51,187)   
    DRY( 51,188)   DRY( 51,189)   DRY( 51,190)   DRY( 51,191)   DRY( 51,192)   
    DRY( 51,193)   DRY( 51,194)   DRY( 51,195)   DRY( 51,196)   DRY( 51,197)   
    DRY( 51,198)   DRY( 51,199)   DRY( 51,200)   DRY( 51,201)   DRY( 51,202)   
    DRY( 51,203)   DRY( 51,204)   DRY( 51,205)   DRY( 51,206)   DRY( 51,207)   
    DRY( 51,208)   DRY( 51,209)   DRY( 51,210)   DRY( 51,211)   DRY( 51,212)   
    DRY( 51,213)   DRY( 51,214)   DRY( 51,215)   DRY( 51,216)   DRY( 51,217)   
    DRY( 51,218)   DRY( 51,219)   DRY( 51,220)   DRY( 52,162)   DRY( 52,163)   
    DRY( 52,164)   DRY( 52,165)   DRY( 52,166)   DRY( 52,167)   DRY( 52,168)   
    DRY( 52,169)   DRY( 52,170)   DRY( 52,171)   DRY( 52,172)   DRY( 52,173)   
    DRY( 52,174)   DRY( 52,175)   DRY( 52,176)   DRY( 52,177)   DRY( 52,178)   
    DRY( 52,179)   DRY( 52,180)   DRY( 52,181)   DRY( 52,182)   DRY( 52,183)   
    DRY( 52,184)   DRY( 52,185)   DRY( 52,186)   DRY( 52,187)   DRY( 52,188)   
    DRY( 52,189)   DRY( 52,190)   DRY( 52,191)   DRY( 52,192)   DRY( 52,193)   
    DRY( 52,194)   DRY( 52,195)   DRY( 52,196)   DRY( 52,197)   DRY( 52,198)   
    DRY( 52,199)   DRY( 52,200)   DRY( 52,201)   DRY( 52,202)   DRY( 52,203)   
    DRY( 52,204)   DRY( 52,205)   DRY( 52,206)   DRY( 52,207)   DRY( 52,208)   
    DRY( 52,209)   DRY( 52,210)   DRY( 52,211)   DRY( 52,212)   DRY( 52,213)   
    DRY( 52,214)   DRY( 52,215)   DRY( 52,216)   DRY( 52,217)   DRY( 52,218)   
    DRY( 52,219)   DRY( 52,220)   DRY( 53,218)   DRY( 53,219)   DRY( 53,220)   

 CELL CONVERSIONS FOR ITER.=  4  LAYER= 21  STEP=  1  PERIOD=   1   (ROW,COL)
    DRY( 48,  1)   DRY( 48,  2)   DRY( 48,  3)   DRY( 48,  4)   DRY( 48,  5)   
    DRY( 48,  6)   DRY( 48,  7)   DRY( 48,  8)   DRY( 48,  9)   DRY( 48, 10)   
    DRY( 48, 11)   DRY( 48, 12)   DRY( 48, 13)   DRY( 48, 14)   DRY( 48, 15)   
    DRY( 48, 16)   DRY( 48, 17)   DRY( 48, 18)   DRY( 48, 19)   DRY( 48, 20)   
    DRY( 48, 21)   DRY( 48, 22)   DRY( 48, 23)   DRY( 48, 24)   DRY( 48, 25)   
    DRY( 48, 26)   DRY( 48, 27)   DRY( 48, 28)   DRY( 48, 29)   DRY( 48, 30)   
    DRY( 48, 31)   DRY( 48, 32)   DRY( 48, 33)   DRY( 48, 34)   DRY( 48, 35)   
    DRY( 48, 36)   DRY( 48, 37)   DRY( 48, 38)   DRY( 48, 39)   DRY( 48, 40)   
    DRY( 48, 41)   DRY( 48, 42)   DRY( 48, 43)   DRY( 48, 44)   DRY( 48, 45)   
    DRY( 48, 46)   DRY( 48, 47)   DRY( 48, 48)   DRY( 48, 49)   DRY( 48, 50)   
    DRY( 48, 51)   DRY( 48, 52)   DRY( 48, 53)   DRY( 48, 54)   DRY( 48, 55)   
    DRY( 48, 56)   DRY( 48, 57)   DRY( 48, 58)   DRY( 48, 59)   DRY( 48, 60)   
    DRY( 48, 61)   DRY( 48, 62)   DRY( 48, 63)   DRY( 48, 64)   DRY( 48, 65)   
    DRY( 48, 66)   DRY( 48, 67)   DRY( 48, 68)   DRY( 48, 69)   DRY( 48, 70)   
    DRY( 48, 71)   DRY( 48, 72)   DRY( 48, 73)   DRY( 48, 74)   DRY( 48, 75)   
    DRY( 48, 76)   DRY( 48, 77)   DRY( 48, 78)   DRY( 48, 79)   DRY( 48, 80)   
    DRY( 48, 81)   DRY( 48, 82)   DRY( 48, 83)   DRY( 48, 84)   DRY( 48, 85)   
    DRY( 48, 86)   DRY( 48, 87)   DRY( 48, 88)   DRY( 48, 89)   DRY( 48, 90)   
    DRY( 48, 91)   DRY( 48, 92)   DRY( 48, 93)   DRY( 48, 94)   DRY( 48, 95)   
    DRY( 48, 96)   DRY( 48, 97)   DRY( 48, 98)   DRY( 48, 99)   DRY( 48,100)   
    DRY( 48,101)   DRY( 48,102)   DRY( 48,103)   DRY( 48,104)   DRY( 48,105)   
    DRY( 48,106)   DRY( 48,107)   DRY( 48,108)   DRY( 48,109)   DRY( 48,110)   
    DRY( 48,111)   DRY( 48,112)   DRY( 48,113)   DRY( 48,114)   DRY( 48,115)   
    DRY( 48,116)   DRY( 48,117)   DRY( 48,118)   DRY( 48,119)   DRY( 48,120)   
    DRY( 48,121)   DRY( 48,122)   DRY( 48,123)   DRY( 48,124)   DRY( 48,125)   
    DRY( 48,126)   DRY( 48,127)   DRY( 48,128)   DRY( 48,129)   DRY( 48,130)   
    DRY( 48,131)   DRY( 48,132)   DRY( 48,133)   DRY( 48,134)   DRY( 48,135)   
    DRY( 48,136)   DRY( 48,137)   DRY( 48,138)   DRY( 48,139)   DRY( 48,140)   
    DRY( 48,141)   DRY( 48,142)   DRY( 48,143)   DRY( 48,144)   DRY( 48,145)   
    DRY( 48,146)   DRY( 48,147)   DRY( 48,148)   DRY( 48,149)   DRY( 48,150)   
    DRY( 48,151)   DRY( 48,152)   DRY( 48,153)   DRY( 48,154)   DRY( 48,155)   
    DRY( 48,156)   DRY( 48,157)   DRY( 48,158)   DRY( 48,159)   DRY( 48,160)   
    DRY( 48,161)   DRY( 48,162)   DRY( 48,163)   DRY( 48,164)   DRY( 48,165)   
    DRY( 48,166)   DRY( 48,167)   DRY( 48,168)   DRY( 48,169)   DRY( 48,170)   
    DRY( 48,171)   DRY( 48,172)   DRY( 48,173)   DRY( 48,174)   DRY( 48,175)   
    DRY( 48,176)   DRY( 48,177)   DRY( 48,178)   DRY( 48,179)   DRY( 48,180)   
    DRY( 48,181)   DRY( 48,182)   DRY( 48,183)   DRY( 48,184)   DRY( 48,185)   
    DRY( 48,186)   DRY( 48,187)   DRY( 48,188)   DRY( 48,189)   DRY( 48,190)   
    DRY( 48,191)   DRY( 48,192)   DRY( 48,193)   DRY( 48,194)   DRY( 48,195)   
    DRY( 48,196)   DRY( 48,197)   DRY( 48,198)   DRY( 48,199)   DRY( 48,200)   
    DRY( 48,201)   DRY( 48,202)   DRY( 48,203)   DRY( 48,204)   DRY( 48,205)   
    DRY( 48,206)   DRY( 48,207)   DRY( 48,208)   DRY( 48,209)   DRY( 48,210)   
    DRY( 48,211)   DRY( 48,212)   DRY( 48,213)   DRY( 48,214)   DRY( 48,215)   
    DRY( 48,216)   DRY( 48,217)   DRY( 48,218)   DRY( 48,219)   DRY( 48,220)   
    DRY( 49,  1)   DRY( 49,  2)   DRY( 49,  3)   DRY( 49,  4)   DRY( 49,  5)   
    DRY( 49,  6)   DRY( 49,  7)   DRY( 49,  8)   DRY( 49,  9)   DRY( 49, 10)   
    DRY( 49, 11)   DRY( 49, 12)   DRY( 49, 13)   DRY( 49, 14)   DRY( 49, 15)   
    DRY( 49, 16)   DRY( 49, 17)   DRY( 49, 18)   DRY( 49, 19)   DRY( 49, 20)   
    DRY( 49, 21)   DRY( 49, 22)   DRY( 49, 23)   DRY( 49, 24)   DRY( 49, 25)   
    DRY( 49, 26)   DRY( 49, 27)   DRY( 49, 28)   DRY( 49, 29)   DRY( 49, 30)   
    DRY( 49, 31)   DRY( 49, 32)   DRY( 49, 33)   DRY( 49, 34)   DRY( 49, 35)   
    DRY( 49, 36)   DRY( 49, 37)   DRY( 49, 38)   DRY( 49, 39)   DRY( 49, 40)   
    DRY( 49, 41)   DRY( 49, 42)   DRY( 49, 43)   DRY( 49, 44)   DRY( 49, 45)   
    DRY( 49, 46)   DRY( 49, 47)   DRY( 49, 48)   DRY( 49, 49)   DRY( 49, 50)   
    DRY( 49, 51)   DRY( 49, 52)   DRY( 49, 53)   DRY( 49, 54)   DRY( 49, 55)   
    DRY( 49, 56)   DRY( 49, 57)   DRY( 49, 58)   DRY( 49, 59)   DRY( 49, 60)   
    DRY( 49, 61)   DRY( 49, 62)   DRY( 49, 63)   DRY( 49, 64)   DRY( 49, 65)   
    DRY( 49, 66)   DRY( 49, 67)   DRY( 49, 68)   DRY( 49, 69)   DRY( 49, 70)   
    DRY( 49, 71)   DRY( 49, 72)   DRY( 49, 73)   DRY( 49, 74)   DRY( 49, 75)   
    DRY( 49, 76)   DRY( 49, 77)   DRY( 49, 78)   DRY( 49, 79)   DRY( 49, 80)   
    DRY( 49, 81)   DRY( 49, 82)   DRY( 49, 83)   DRY( 49, 84)   DRY( 49, 85)   
    DRY( 49, 86)   DRY( 49, 87)   DRY( 49, 88)   DRY( 49, 89)   DRY( 49, 90)   
    DRY( 49, 91)   DRY( 49, 92)   DRY( 49, 93)   DRY( 49, 94)   DRY( 49, 95)   
    DRY( 49, 96)   DRY( 49, 97)   DRY( 49, 98)   DRY( 49, 99)   DRY( 49,100)   
    DRY( 49,101)   DRY( 49,102)   DRY( 49,103)   DRY( 49,104)   DRY( 49,105)   
    DRY( 49,106)   DRY( 49,107)   DRY( 49,108)   DRY( 49,109)   DRY( 49,110)   
    DRY( 49,111)   DRY( 49,112)   DRY( 49,113)   DRY( 49,114)   DRY( 49,115)   
    DRY( 49,116)   DRY( 49,117)   DRY( 49,118)   DRY( 49,119)   DRY( 49,120)   
    DRY( 49,121)   DRY( 49,122)   DRY( 49,123)   DRY( 49,124)   DRY( 49,125)   
    DRY( 49,126)   DRY( 49,127)   DRY( 49,128)   DRY( 49,129)   DRY( 49,130)   
    DRY( 49,131)   DRY( 49,132)   DRY( 49,133)   DRY( 49,134)   DRY( 49,135)   
    DRY( 49,136)   DRY( 49,137)   DRY( 49,138)   DRY( 49,139)   DRY( 49,140)   
    DRY( 49,141)   DRY( 49,142)   DRY( 49,143)   DRY( 49,144)   DRY( 49,145)   
    DRY( 49,146)   DRY( 49,147)   DRY( 49,148)   DRY( 49,149)   DRY( 49,150)   
    DRY( 49,151)   DRY( 49,152)   DRY( 49,153)   DRY( 49,154)   DRY( 49,155)   
    DRY( 49,156)   DRY( 49,157)   DRY( 49,158)   DRY( 49,159)   DRY( 49,160)   
    DRY( 49,161)   DRY( 49,162)   DRY( 49,163)   DRY( 49,164)   DRY( 49,165)   
    DRY( 49,166)   DRY( 49,167)   DRY( 49,168)   DRY( 49,169)   DRY( 49,170)   
    DRY( 49,171)   DRY( 49,172)   DRY( 49,173)   DRY( 49,174)   DRY( 49,175)   
    DRY( 49,176)   DRY( 49,177)   DRY( 49,178)   DRY( 49,179)   DRY( 49,180)   
    DRY( 49,181)   DRY( 49,182)   DRY( 49,183)   DRY( 49,184)   DRY( 49,185)   
    DRY( 49,186)   DRY( 49,187)   DRY( 49,188)   DRY( 49,189)   DRY( 49,190)   
    DRY( 49,191)   DRY( 49,192)   DRY( 49,193)   DRY( 49,194)   DRY( 49,195)   
    DRY( 49,196)   DRY( 49,197)   DRY( 49,198)   DRY( 49,199)   DRY( 49,200)   
    DRY( 49,201)   DRY( 49,202)   DRY( 49,203)   DRY( 49,204)   DRY( 49,205)   
    DRY( 49,206)   DRY( 49,207)   DRY( 49,208)   DRY( 49,209)   DRY( 49,210)   
    DRY( 49,211)   DRY( 49,212)   DRY( 49,213)   DRY( 49,214)   DRY( 49,215)   
    DRY( 49,216)   DRY( 49,217)   DRY( 49,218)   DRY( 49,219)   DRY( 49,220)   
    DRY( 50,  1)   DRY( 50,  2)   DRY( 50,  3)   DRY( 50,  4)   DRY( 50,  5)   
    DRY( 50,  6)   DRY( 50,  7)   DRY( 50,  8)   DRY( 50,  9)   DRY( 50, 10)   
    DRY( 50, 11)   DRY( 50, 12)   DRY( 50, 13)   DRY( 50, 14)   DRY( 50, 15)   
    DRY( 50, 16)   DRY( 50, 17)   DRY( 50, 18)   DRY( 50, 19)   DRY( 50, 20)   
    DRY( 50, 21)   DRY( 50, 22)   DRY( 50, 23)   DRY( 50, 24)   DRY( 50, 25)   
    DRY( 50, 26)   DRY( 50, 27)   DRY( 50, 28)   DRY( 50, 29)   DRY( 50, 30)   
    DRY( 50, 31)   DRY( 50, 32)   DRY( 50, 33)   DRY( 50, 34)   DRY( 50, 35)   
    DRY( 50, 36)   DRY( 50, 37)   DRY( 50, 38)   DRY( 50, 39)   DRY( 50, 40)   
    DRY( 50, 41)   DRY( 50, 42)   DRY( 50, 43)   DRY( 50, 44)   DRY( 50, 45)   
    DRY( 50, 46)   DRY( 50, 47)   DRY( 50, 48)   DRY( 50, 49)   DRY( 50, 50)   
    DRY( 50, 51)   DRY( 50, 52)   DRY( 50, 53)   DRY( 50, 54)   DRY( 50, 55)   
    DRY( 50, 56)   DRY( 50, 57)   DRY( 50, 58)   DRY( 50, 59)   DRY( 50, 60)   
    DRY( 50, 61)   DRY( 50, 62)   DRY( 50, 63)   DRY( 50, 64)   DRY( 50, 65)   
    DRY( 50, 66)   DRY( 50, 67)   DRY( 50, 68)   DRY( 50, 69)   DRY( 50, 70)   
    DRY( 50, 71)   DRY( 50, 72)   DRY( 50, 73)   DRY( 50, 74)   DRY( 50, 75)   
    DRY( 50, 76)   DRY( 50, 77)   DRY( 50, 78)   DRY( 50, 79)   DRY( 50, 80)   
    DRY( 50, 81)   DRY( 50, 82)   DRY( 50, 83)   DRY( 50, 84)   DRY( 50, 85)   
    DRY( 50, 86)   DRY( 50, 87)   DRY( 50, 88)   DRY( 50, 89)   DRY( 50, 90)   
    DRY( 50, 91)   DRY( 50, 92)   DRY( 50, 93)   DRY( 50, 94)   DRY( 50, 95)   
    DRY( 50, 96)   DRY( 50, 97)   DRY( 50, 98)   DRY( 50, 99)   DRY( 50,100)   
    DRY( 50,101)   DRY( 50,102)   DRY( 50,103)   DRY( 50,104)   DRY( 50,105)   
    DRY( 50,106)   DRY( 50,107)   DRY( 50,108)   DRY( 50,109)   DRY( 50,110)   
    DRY( 50,111)   DRY( 50,112)   DRY( 50,113)   DRY( 50,114)   DRY( 50,115)   
    DRY( 50,116)   DRY( 50,117)   DRY( 50,118)   DRY( 50,119)   DRY( 50,120)   
    DRY( 50,121)   DRY( 50,122)   DRY( 50,123)   DRY( 50,124)   DRY( 50,125)   
    DRY( 50,126)   DRY( 50,127)   DRY( 50,128)   DRY( 50,129)   DRY( 50,130)   
    DRY( 50,131)   DRY( 50,132)   DRY( 50,133)   DRY( 50,134)   DRY( 50,135)   
    DRY( 50,136)   DRY( 50,137)   DRY( 50,138)   DRY( 50,139)   DRY( 50,140)   
    DRY( 50,141)   DRY( 50,142)   DRY( 50,143)   DRY( 50,144)   DRY( 50,145)   
    DRY( 50,146)   DRY( 50,147)   DRY( 50,148)   DRY( 50,149)   DRY( 50,150)   
    DRY( 50,151)   DRY( 50,152)   DRY( 50,153)   DRY( 50,154)   DRY( 50,155)   
    DRY( 50,156)   DRY( 50,157)   DRY( 50,158)   DRY( 50,159)   DRY( 50,160)   
    DRY( 50,161)   DRY( 50,162)   DRY( 50,163)   DRY( 50,164)   DRY( 50,165)   
    DRY( 50,166)   DRY( 50,167)   DRY( 50,168)   DRY( 50,169)   DRY( 50,170)   
    DRY( 50,171)   DRY( 50,172)   DRY( 50,173)   DRY( 50,174)   DRY( 50,175)   
    DRY( 50,176)   DRY( 50,177)   DRY( 50,178)   DRY( 50,179)   DRY( 50,180)   
    DRY( 50,181)   DRY( 50,182)   DRY( 50,183)   DRY( 50,184)   DRY( 50,185)   
    DRY( 50,186)   DRY( 50,187)   DRY( 50,188)   DRY( 50,189)   DRY( 50,190)   
    DRY( 50,191)   DRY( 50,192)   DRY( 50,193)   DRY( 50,194)   DRY( 50,195)   
    DRY( 50,196)   DRY( 50,197)   DRY( 50,198)   DRY( 50,199)   DRY( 50,200)   
    DRY( 50,201)   DRY( 50,202)   DRY( 50,203)   DRY( 50,204)   DRY( 50,205)   
    DRY( 50,206)   DRY( 50,207)   DRY( 50,208)   DRY( 50,209)   DRY( 50,210)   
    DRY( 50,211)   DRY( 50,212)   DRY( 50,213)   DRY( 50,214)   DRY( 50,215)   
    DRY( 50,216)   DRY( 50,217)   DRY( 50,218)   DRY( 50,219)   DRY( 50,220)   
    DRY( 51,  1)   DRY( 51,  2)   DRY( 51,  3)   DRY( 51,  4)   DRY( 51,  5)   
    DRY( 51,  6)   DRY( 51,  7)   DRY( 51,  8)   DRY( 51,  9)   DRY( 51, 10)   
    DRY( 51, 11)   DRY( 51, 12)   DRY( 51, 13)   DRY( 51, 14)   DRY( 51, 15)   
    DRY( 51, 16)   DRY( 51, 17)   DRY( 51, 18)   DRY( 51, 19)   DRY( 51, 20)   
    DRY( 51, 21)   DRY( 51, 22)   DRY( 51, 23)   DRY( 51, 24)   DRY( 51, 25)   
    DRY( 51, 26)   DRY( 51, 27)   DRY( 51, 28)   DRY( 51, 29)   DRY( 51, 30)   
    DRY( 51, 31)   DRY( 51, 32)   DRY( 51, 33)   DRY( 51, 34)   DRY( 51, 35)   
    DRY( 51, 36)   DRY( 51, 37)   DRY( 51, 38)   DRY( 51, 39)   DRY( 51, 40)   
    DRY( 51, 41)   DRY( 51, 42)   DRY( 51, 43)   DRY( 51, 44)   DRY( 51, 45)   
    DRY( 51, 46)   DRY( 51, 47)   DRY( 51, 48)   DRY( 51, 49)   DRY( 51, 50)   
    DRY( 51, 51)   DRY( 51, 52)   DRY( 51, 53)   DRY( 51, 54)   DRY( 51, 55)   
    DRY( 51, 56)   DRY( 51, 57)   DRY( 51, 58)   DRY( 51, 59)   DRY( 51, 60)   
    DRY( 51, 61)   DRY( 51, 62)   DRY( 51, 63)   DRY( 51, 64)   DRY( 51, 65)   
    DRY( 51, 66)   DRY( 51, 67)   DRY( 51, 68)   DRY( 51, 69)   DRY( 51, 70)   
    DRY( 51, 71)   DRY( 51, 72)   DRY( 51, 73)   DRY( 51, 74)   DRY( 51, 75)   
    DRY( 51, 76)   DRY( 51, 77)   DRY( 51, 78)   DRY( 51, 79)   DRY( 51, 80)   
    DRY( 51, 81)   DRY( 51, 82)   DRY( 51, 83)   DRY( 51, 84)   DRY( 51, 85)   
    DRY( 51, 86)   DRY( 51, 87)   DRY( 51, 88)   DRY( 51, 89)   DRY( 51, 90)   
    DRY( 51, 91)   DRY( 51, 92)   DRY( 51, 93)   DRY( 51, 94)   DRY( 51, 95)   
    DRY( 51, 96)   DRY( 51, 97)   DRY( 51, 98)   DRY( 51, 99)   DRY( 51,100)   
    DRY( 51,101)   DRY( 51,102)   DRY( 51,103)   DRY( 51,104)   DRY( 51,105)   
    DRY( 51,106)   DRY( 51,107)   DRY( 51,108)   DRY( 51,109)   DRY( 51,110)   
    DRY( 51,111)   DRY( 51,112)   DRY( 51,113)   DRY( 51,114)   DRY( 51,115)   
    DRY( 51,116)   DRY( 51,117)   DRY( 51,118)   DRY( 51,119)   DRY( 51,120)   
    DRY( 51,121)   DRY( 51,122)   DRY( 51,123)   DRY( 51,124)   DRY( 51,125)   
    DRY( 51,126)   DRY( 51,127)   DRY( 51,128)   DRY( 51,129)   DRY( 51,130)   
    DRY( 51,131)   DRY( 51,132)   DRY( 51,133)   DRY( 51,134)   DRY( 51,135)   
    DRY( 51,136)   DRY( 51,137)   DRY( 51,138)   DRY( 51,139)   DRY( 51,140)   
    DRY( 51,141)   DRY( 51,142)   DRY( 51,143)   DRY( 51,144)   DRY( 51,145)   
    DRY( 51,146)   DRY( 51,147)   DRY( 51,148)   DRY( 51,149)   DRY( 51,150)   
    DRY( 51,151)   DRY( 51,152)   DRY( 51,153)   DRY( 51,154)   DRY( 51,155)   
    DRY( 51,156)   DRY( 51,157)   DRY( 51,158)   DRY( 51,159)   DRY( 51,160)   
    DRY( 51,161)   DRY( 51,162)   DRY( 51,163)   DRY( 51,164)   DRY( 51,165)   
    DRY( 51,166)   DRY( 51,167)   DRY( 51,168)   DRY( 51,169)   DRY( 51,170)   
    DRY( 51,171)   DRY( 51,172)   DRY( 51,173)   DRY( 51,174)   DRY( 51,175)   
    DRY( 51,176)   DRY( 51,177)   DRY( 51,178)   DRY( 51,179)   DRY( 51,180)   
    DRY( 51,181)   DRY( 51,182)   DRY( 51,183)   DRY( 51,184)   DRY( 51,185)   
    DRY( 51,186)   DRY( 51,187)   DRY( 51,188)   DRY( 51,189)   DRY( 51,190)   
    DRY( 51,191)   DRY( 51,192)   DRY( 51,193)   DRY( 51,194)   DRY( 51,195)   
    DRY( 51,196)   DRY( 51,197)   DRY( 51,198)   DRY( 51,199)   DRY( 51,200)   
    DRY( 51,201)   DRY( 51,202)   DRY( 51,203)   DRY( 51,204)   DRY( 51,205)   
    DRY( 51,206)   DRY( 51,207)   DRY( 51,208)   DRY( 51,209)   DRY( 51,210)   
    DRY( 51,211)   DRY( 51,212)   DRY( 51,213)   DRY( 51,214)   DRY( 51,215)   
    DRY( 51,216)   DRY( 51,217)   DRY( 51,218)   DRY( 51,219)   DRY( 51,220)   
    DRY( 52,  1)   DRY( 52,  2)   DRY( 52,  3)   DRY( 52,  4)   DRY( 52,  5)   
    DRY( 52,  6)   DRY( 52,  7)   DRY( 52,  8)   DRY( 52,  9)   DRY( 52, 10)   
    DRY( 52, 11)   DRY( 52, 12)   DRY( 52, 13)   DRY( 52, 14)   DRY( 52, 15)   
    DRY( 52, 16)   DRY( 52, 17)   DRY( 52, 18)   DRY( 52, 19)   DRY( 52, 20)   
    DRY( 52, 21)   DRY( 52, 22)   DRY( 52, 23)   DRY( 52, 24)   DRY( 52, 25)   
    DRY( 52, 26)   DRY( 52, 27)   DRY( 52, 28)   DRY( 52, 29)   DRY( 52, 30)   
    DRY( 52, 31)   DRY( 52, 32)   DRY( 52, 33)   DRY( 52, 34)   DRY( 52, 35)   
    DRY( 52, 36)   DRY( 52, 37)   DRY( 52, 38)   DRY( 52, 39)   DRY( 52, 40)   
    DRY( 52, 41)   DRY( 52, 42)   DRY( 52, 43)   DRY( 52, 44)   DRY( 52, 45)   
    DRY( 52, 46)   DRY( 52, 47)   DRY( 52, 48)   DRY( 52, 49)   DRY( 52, 50)   
    DRY( 52, 51)   DRY( 52, 52)   DRY( 52, 53)   DRY( 52, 54)   DRY( 52, 55)   
    DRY( 52, 56)   DRY( 52, 57)   DRY( 52, 58)   DRY( 52, 59)   DRY( 52, 60)   
    DRY( 52, 61)   DRY( 52, 62)   DRY( 52, 63)   DRY( 52, 64)   DRY( 52, 65)   
    DRY( 52, 66)   DRY( 52, 67)   DRY( 52, 68)   DRY( 52, 69)   DRY( 52, 70)   
    DRY( 52, 71)   DRY( 52, 72)   DRY( 52, 73)   DRY( 52, 74)   DRY( 52, 75)   
    DRY( 52, 76)   DRY( 52, 77)   DRY( 52, 78)   DRY( 52, 79)   DRY( 52, 80)   
    DRY( 52, 81)   DRY( 52, 82)   DRY( 52, 83)   DRY( 52, 84)   DRY( 52, 85)   
    DRY( 52, 86)   DRY( 52, 87)   DRY( 52, 88)   DRY( 52, 89)   DRY( 52, 90)   
    DRY( 52, 91)   DRY( 52, 92)   DRY( 52, 93)   DRY( 52, 94)   DRY( 52, 95)   
    DRY( 52, 96)   DRY( 52, 97)   DRY( 52, 98)   DRY( 52, 99)   DRY( 52,100)   
    DRY( 52,101)   DRY( 52,102)   DRY( 52,103)   DRY( 52,104)   DRY( 52,105)   
    DRY( 52,106)   DRY( 52,107)   DRY( 52,108)   DRY( 52,109)   DRY( 52,110)   
    DRY( 52,111)   DRY( 52,112)   DRY( 52,113)   DRY( 52,114)   DRY( 52,115)   
    DRY( 52,116)   DRY( 52,117)   DRY( 52,118)   DRY( 52,119)   DRY( 52,120)   
    DRY( 52,121)   DRY( 52,122)   DRY( 52,123)   DRY( 52,124)   DRY( 52,125)   
    DRY( 52,126)   DRY( 52,127)   DRY( 52,128)   DRY( 52,129)   DRY( 52,130)   
    DRY( 52,131)   DRY( 52,132)   DRY( 52,133)   DRY( 52,134)   DRY( 52,135)   
    DRY( 52,136)   DRY( 52,137)   DRY( 52,138)   DRY( 52,139)   DRY( 52,140)   
    DRY( 52,141)   DRY( 52,142)   DRY( 52,143)   DRY( 52,144)   DRY( 52,145)   
    DRY( 52,146)   DRY( 52,147)   DRY( 52,148)   DRY( 52,149)   DRY( 52,150)   
    DRY( 52,151)   DRY( 52,152)   DRY( 52,153)   DRY( 52,154)   DRY( 52,155)   
    DRY( 52,156)   DRY( 52,157)   DRY( 52,158)   DRY( 52,159)   DRY( 52,160)   
    DRY( 52,161)   DRY( 52,162)   DRY( 52,163)   DRY( 52,164)   DRY( 52,165)   
    DRY( 52,166)   DRY( 52,167)   DRY( 52,168)   DRY( 52,169)   DRY( 52,170)   
    DRY( 52,171)   DRY( 52,172)   DRY( 52,173)   DRY( 52,174)   DRY( 52,175)   
    DRY( 52,176)   DRY( 52,177)   DRY( 52,178)   DRY( 52,179)   DRY( 52,180)   
    DRY( 52,181)   DRY( 52,182)   DRY( 52,183)   DRY( 52,184)   DRY( 52,185)   
    DRY( 52,186)   DRY( 52,187)   DRY( 52,188)   DRY( 52,189)   DRY( 52,190)   
    DRY( 52,191)   DRY( 52,192)   DRY( 52,193)   DRY( 52,194)   DRY( 52,195)   
    DRY( 52,196)   DRY( 52,197)   DRY( 52,198)   DRY( 52,199)   DRY( 52,200)   
    DRY( 52,201)   DRY( 52,202)   DRY( 52,203)   DRY( 52,204)   DRY( 52,205)   
    DRY( 52,206)   DRY( 52,207)   DRY( 52,208)   DRY( 52,209)   DRY( 52,210)   
    DRY( 52,211)   DRY( 52,212)   DRY( 52,213)   DRY( 52,214)   DRY( 52,215)   
    DRY( 52,216)   DRY( 52,217)   DRY( 52,218)   DRY( 52,219)   DRY( 52,220)   
    DRY( 53,  1)   DRY( 53,  2)   DRY( 53,  3)   DRY( 53,  4)   DRY( 53,  5)   
    DRY( 53,  6)   DRY( 53,  7)   DRY( 53,  8)   DRY( 53,  9)   DRY( 53, 10)   
    DRY( 53, 11)   DRY( 53, 12)   DRY( 53, 13)   DRY( 53, 14)   DRY( 53, 15)   
    DRY( 53, 16)   DRY( 53, 17)   DRY( 53, 18)   DRY( 53, 19)   DRY( 53, 20)   
    DRY( 53, 21)   DRY( 53, 22)   DRY( 53, 23)   DRY( 53, 24)   DRY( 53, 25)   
    DRY( 53, 26)   DRY( 53, 27)   DRY( 53, 28)   DRY( 53, 29)   DRY( 53, 30)   
    DRY( 53, 31)   DRY( 53, 32)   DRY( 53, 33)   DRY( 53, 34)   DRY( 53, 35)   
    DRY( 53, 36)   DRY( 53, 37)   DRY( 53, 38)   DRY( 53, 39)   DRY( 53, 40)   
    DRY( 53, 41)   DRY( 53, 42)   DRY( 53, 43)   DRY( 53, 44)   DRY( 53, 45)   
    DRY( 53, 46)   DRY( 53, 47)   DRY( 53, 48)   DRY( 53, 49)   DRY( 53, 50)   
    DRY( 53, 51)   DRY( 53, 52)   DRY( 53, 53)   DRY( 53, 54)   DRY( 53, 55)   
    DRY( 53, 56)   DRY( 53, 57)   DRY( 53, 58)   DRY( 53, 59)   DRY( 53, 60)   
    DRY( 53, 61)   DRY( 53, 62)   DRY( 53, 63)   DRY( 53, 64)   DRY( 53, 65)   
    DRY( 53, 66)   DRY( 53, 67)   DRY( 53, 68)   DRY( 53, 69)   DRY( 53, 70)   
    DRY( 53, 71)   DRY( 53, 72)   DRY( 53, 73)   DRY( 53, 74)   DRY( 53, 75)   
    DRY( 53, 76)   DRY( 53, 77)   DRY( 53, 78)   DRY( 53, 79)   DRY( 53, 80)   
    DRY( 53, 81)   DRY( 53, 82)   DRY( 53, 83)   DRY( 53, 84)   DRY( 53, 85)   
    DRY( 53, 86)   DRY( 53, 87)   DRY( 53, 88)   DRY( 53, 89)   DRY( 53, 90)   
    DRY( 53, 91)   DRY( 53, 92)   DRY( 53, 93)   DRY( 53, 94)   DRY( 53, 95)   
    DRY( 53, 96)   DRY( 53, 97)   DRY( 53, 98)   DRY( 53, 99)   DRY( 53,100)   
    DRY( 53,101)   DRY( 53,102)   DRY( 53,103)   DRY( 53,104)   DRY( 53,105)   
    DRY( 53,106)   DRY( 53,107)   DRY( 53,108)   DRY( 53,109)   DRY( 53,110)   
    DRY( 53,111)   DRY( 53,112)   DRY( 53,113)   DRY( 53,114)   DRY( 53,115)   
    DRY( 53,116)   DRY( 53,117)   DRY( 53,118)   DRY( 53,119)   DRY( 53,120)   
    DRY( 53,121)   DRY( 53,122)   DRY( 53,123)   DRY( 53,124)   DRY( 53,125)   
    DRY( 53,126)   DRY( 53,127)   DRY( 53,128)   DRY( 53,129)   DRY( 53,130)   
    DRY( 53,131)   DRY( 53,132)   DRY( 53,133)   DRY( 53,134)   DRY( 53,135)   
    DRY( 53,136)   DRY( 53,137)   DRY( 53,138)   DRY( 53,139)   DRY( 53,140)   
    DRY( 53,141)   DRY( 53,142)   DRY( 53,143)   DRY( 53,144)   DRY( 53,145)   
    DRY( 53,146)   DRY( 53,147)   DRY( 53,148)   DRY( 53,149)   DRY( 53,150)   
    DRY( 53,151)   DRY( 53,152)   DRY( 53,153)   DRY( 53,154)   DRY( 53,155)   
    DRY( 53,156)   DRY( 53,157)   DRY( 53,158)   DRY( 53,159)   DRY( 53,160)   
    DRY( 53,161)   DRY( 53,162)   DRY( 53,163)   DRY( 53,164)   DRY( 53,165)   
    DRY( 53,166)   DRY( 53,167)   DRY( 53,168)   DRY( 53,169)   DRY( 53,170)   
    DRY( 53,171)   DRY( 53,172)   DRY( 53,173)   DRY( 53,174)   DRY( 53,175)   
    DRY( 53,176)   DRY( 53,177)   DRY( 53,178)   DRY( 53,179)   DRY( 53,180)   
    DRY( 53,181)   DRY( 53,182)   DRY( 53,183)   DRY( 53,184)   DRY( 53,185)   
    DRY( 53,186)   DRY( 53,187)   DRY( 53,188)   DRY( 53,189)   DRY( 53,190)   
    DRY( 53,191)   DRY( 53,192)   DRY( 53,193)   DRY( 53,194)   DRY( 53,195)   
    DRY( 53,196)   DRY( 53,197)   DRY( 53,198)   DRY( 53,199)   DRY( 53,200)   
    DRY( 53,201)   DRY( 53,202)   DRY( 53,203)   DRY( 53,204)   DRY( 53,205)   
    DRY( 53,206)   DRY( 53,207)   DRY( 53,208)   DRY( 53,209)   DRY( 53,210)   
    DRY( 53,211)   DRY( 53,212)   DRY( 53,213)   DRY( 53,214)   DRY( 53,215)   
    DRY( 53,216)   DRY( 53,217)   DRY( 53,218)   DRY( 53,219)   DRY( 53,220)   
    DRY( 54,  1)   DRY( 54,  2)   DRY( 54,  3)   DRY( 54,  4)   DRY( 54,  5)   
    DRY( 54,  6)   DRY( 54,  7)   DRY( 54,  8)   DRY( 54,  9)   DRY( 54, 10)   
    DRY( 54, 11)   DRY( 54, 12)   DRY( 54, 13)   DRY( 54, 14)   DRY( 54, 15)   
    DRY( 54, 16)   DRY( 54, 17)   DRY( 54, 18)   DRY( 54, 19)   DRY( 54, 20)   
    DRY( 54, 21)   DRY( 54, 22)   DRY( 54, 23)   DRY( 54, 24)   DRY( 54, 25)   
    DRY( 54, 26)   DRY( 54, 27)   DRY( 54, 28)   DRY( 54, 29)   DRY( 54, 30)   
    DRY( 54, 31)   DRY( 54, 32)   DRY( 54, 33)   DRY( 54, 34)   DRY( 54, 35)   
    DRY( 54, 36)   DRY( 54, 37)   DRY( 54, 38)   DRY( 54, 39)   DRY( 54, 40)   
    DRY( 54, 41)   DRY( 54, 42)   DRY( 54, 43)   DRY( 54, 44)   DRY( 54, 45)   
    DRY( 54, 46)   DRY( 54, 47)   DRY( 54, 48)   DRY( 54, 49)   DRY( 54, 50)   
    DRY( 54, 51)   DRY( 54, 52)   DRY( 54, 53)   DRY( 54, 54)   DRY( 54, 55)   
    DRY( 54, 56)   DRY( 54, 57)   DRY( 54, 58)   DRY( 54, 59)   DRY( 54, 60)   
    DRY( 54, 61)   DRY( 54, 62)   DRY( 54, 63)   DRY( 54, 64)   DRY( 54, 65)   
    DRY( 54, 66)   DRY( 54, 67)   DRY( 54, 68)   DRY( 54, 69)   DRY( 54, 70)   
    DRY( 54, 71)   DRY( 54, 72)   DRY( 54, 73)   DRY( 54, 74)   DRY( 54, 75)   
    DRY( 54, 76)   DRY( 54, 77)   DRY( 54, 78)   DRY( 54, 79)   DRY( 54, 80)   
    DRY( 54, 81)   DRY( 54, 82)   DRY( 54, 83)   DRY( 54, 84)   DRY( 54, 85)   
    DRY( 54, 86)   DRY( 54, 87)   DRY( 54, 88)   DRY( 54, 89)   DRY( 54, 90)   
    DRY( 54, 91)   DRY( 54, 92)   DRY( 54, 93)   DRY( 54, 94)   DRY( 54, 95)   
    DRY( 54, 96)   DRY( 54, 97)   DRY( 54, 98)   DRY( 54, 99)   DRY( 54,100)   
    DRY( 54,101)   DRY( 54,102)   DRY( 54,103)   DRY( 54,104)   DRY( 54,105)   
    DRY( 54,106)   DRY( 54,107)   DRY( 54,108)   DRY( 54,109)   DRY( 54,110)   
    DRY( 54,111)   DRY( 54,112)   DRY( 54,113)   DRY( 54,114)   DRY( 54,115)   
    DRY( 54,116)   DRY( 54,117)   DRY( 54,118)   DRY( 54,119)   DRY( 54,120)   
    DRY( 54,121)   DRY( 54,122)   DRY( 54,123)   DRY( 54,124)   DRY( 54,125)   
    DRY( 54,126)   DRY( 54,127)   DRY( 54,128)   DRY( 54,129)   DRY( 54,130)   
    DRY( 54,131)   DRY( 54,132)   DRY( 54,133)   DRY( 54,134)   DRY( 54,135)   
    DRY( 54,136)   DRY( 54,137)   DRY( 54,138)   DRY( 54,139)   DRY( 54,140)   
    DRY( 54,141)   DRY( 54,142)   DRY( 54,143)   DRY( 54,144)   DRY( 54,145)   
    DRY( 54,146)   DRY( 54,147)   DRY( 54,148)   DRY( 54,149)   DRY( 54,150)   
    DRY( 54,151)   DRY( 54,152)   DRY( 54,153)   DRY( 54,154)   DRY( 54,155)   
    DRY( 54,156)   DRY( 54,157)   DRY( 54,158)   DRY( 54,159)   DRY( 54,160)   
    DRY( 54,161)   DRY( 54,162)   DRY( 54,163)   DRY( 54,164)   DRY( 54,165)   
    DRY( 54,166)   DRY( 54,167)   DRY( 54,168)   DRY( 54,169)   DRY( 54,170)   
    DRY( 54,171)   DRY( 54,172)   DRY( 54,173)   DRY( 54,174)   DRY( 54,175)   
    DRY( 54,176)   DRY( 54,177)   DRY( 54,178)   DRY( 54,179)   DRY( 54,180)   
    DRY( 54,181)   DRY( 54,182)   DRY( 54,183)   DRY( 54,184)   DRY( 54,185)   
    DRY( 54,186)   DRY( 54,187)   DRY( 54,188)   DRY( 54,189)   DRY( 54,190)   
    DRY( 54,191)   DRY( 54,192)   DRY( 54,193)   DRY( 54,194)   DRY( 54,195)   
    DRY( 54,196)   DRY( 54,197)   DRY( 54,198)   DRY( 54,199)   DRY( 54,200)   
    DRY( 54,201)   DRY( 54,202)   DRY( 54,203)   DRY( 54,204)   DRY( 54,205)   
    DRY( 54,206)   DRY( 54,207)   DRY( 54,208)   DRY( 54,209)   DRY( 54,210)   
    DRY( 54,211)   DRY( 54,212)   DRY( 54,213)   DRY( 54,214)   DRY( 54,215)   
    DRY( 54,216)   DRY( 54,217)   DRY( 54,218)   DRY( 54,219)   DRY( 54,220)   
    DRY( 55, 39)   DRY( 55, 40)   DRY( 55, 41)   DRY( 55, 42)   DRY( 55, 43)   
    DRY( 55, 44)   DRY( 55, 45)   DRY( 55, 46)   DRY( 55, 47)   DRY( 55, 48)   
    DRY( 55, 49)   DRY( 55, 50)   DRY( 55, 51)   DRY( 55, 52)   DRY( 55, 53)   
    DRY( 55, 54)   DRY( 55, 55)   DRY( 55, 56)   DRY( 55, 57)   DRY( 55, 58)   
    DRY( 55, 59)   DRY( 55, 60)   DRY( 55, 61)   DRY( 55, 62)   DRY( 55, 63)   
    DRY( 55, 64)   DRY( 55, 65)   DRY( 55, 66)   DRY( 55, 67)   DRY( 55, 68)   
    DRY( 55, 69)   DRY( 55, 70)   DRY( 55, 71)   DRY( 55, 72)   DRY( 55, 73)   
    DRY( 55, 74)   DRY( 55, 75)   DRY( 55, 76)   DRY( 55, 77)   DRY( 55, 78)   
    DRY( 55, 79)   DRY( 55, 80)   DRY( 55, 81)   DRY( 55, 82)   DRY( 55, 83)   
    DRY( 55, 84)   DRY( 55, 85)   DRY( 55, 86)   DRY( 55, 87)   DRY( 55, 88)   
    DRY( 55, 89)   DRY( 55, 90)   DRY( 55, 91)   DRY( 55, 92)   DRY( 55, 93)   
    DRY( 55, 94)   DRY( 55, 95)   DRY( 55, 96)   DRY( 55, 97)   DRY( 55, 98)   
    DRY( 55, 99)   DRY( 55,100)   DRY( 55,101)   DRY( 55,102)   DRY( 55,103)   
    DRY( 55,104)   DRY( 55,105)   DRY( 55,106)   DRY( 55,107)   DRY( 55,108)   
    DRY( 55,109)   DRY( 55,110)   DRY( 55,111)   DRY( 55,112)   DRY( 55,113)   
    DRY( 55,114)   DRY( 55,115)   DRY( 55,116)   DRY( 55,117)   DRY( 55,118)   
    DRY( 55,119)   DRY( 55,120)   DRY( 55,121)   DRY( 55,122)   DRY( 55,123)   
    DRY( 55,124)   DRY( 55,125)   DRY( 55,126)   DRY( 55,127)   DRY( 55,128)   
    DRY( 55,129)   DRY( 55,130)   DRY( 55,131)   DRY( 55,132)   DRY( 55,133)   
    DRY( 55,134)   DRY( 55,135)   DRY( 55,136)   DRY( 55,137)   DRY( 55,138)   
    DRY( 55,139)   DRY( 55,140)   DRY( 55,141)   DRY( 55,142)   DRY( 55,143)   
    DRY( 55,144)   DRY( 55,145)   DRY( 55,146)   DRY( 55,147)   DRY( 55,148)   
    DRY( 55,149)   DRY( 55,150)   DRY( 55,151)   DRY( 55,152)   DRY( 55,153)   
    DRY( 55,154)   DRY( 55,155)   DRY( 55,156)   DRY( 55,157)   DRY( 55,158)   
    DRY( 55,159)   DRY( 55,160)   DRY( 55,161)   DRY( 55,162)   DRY( 55,163)   
    DRY( 55,164)   DRY( 55,165)   DRY( 55,166)   DRY( 55,167)   DRY( 55,168)   
    DRY( 55,169)   DRY( 55,170)   DRY( 55,171)   DRY( 55,172)   DRY( 55,173)   
    DRY( 55,174)   DRY( 55,175)   DRY( 55,176)   DRY( 55,177)   DRY( 55,178)   
    DRY( 55,179)   DRY( 55,180)   DRY( 55,181)   DRY( 55,182)   DRY( 55,183)   
    DRY( 55,184)   DRY( 55,185)   DRY( 55,186)   DRY( 55,187)   DRY( 55,188)   
    DRY( 55,189)   DRY( 55,190)   DRY( 55,191)   DRY( 55,192)   DRY( 55,193)   
    DRY( 55,194)   DRY( 55,195)   DRY( 55,196)   DRY( 55,197)   DRY( 55,198)   
    DRY( 55,199)   DRY( 55,200)   DRY( 55,201)   DRY( 55,202)   DRY( 55,203)   
    DRY( 55,204)   DRY( 55,205)   DRY( 55,206)   DRY( 55,207)   DRY( 55,208)   
    DRY( 55,209)   DRY( 55,210)   DRY( 55,211)   DRY( 55,212)   DRY( 55,213)   
    DRY( 55,214)   DRY( 55,215)   DRY( 55,216)   DRY( 55,217)   DRY( 55,218)   
    DRY( 55,219)   DRY( 55,220)   DRY( 56,101)   DRY( 56,102)   DRY( 56,103)   
    DRY( 56,104)   DRY( 56,105)   DRY( 56,106)   DRY( 56,107)   DRY( 56,108)   
    DRY( 56,109)   DRY( 56,110)   DRY( 56,111)   DRY( 56,112)   DRY( 56,113)   
    DRY( 56,114)   DRY( 56,115)   DRY( 56,116)   DRY( 56,117)   DRY( 56,118)   
    DRY( 56,119)   DRY( 56,120)   DRY( 56,121)   DRY( 56,122)   DRY( 56,123)   
    DRY( 56,124)   DRY( 56,125)   DRY( 56,126)   DRY( 56,127)   DRY( 56,128)   
    DRY( 56,129)   DRY( 56,130)   DRY( 56,131)   DRY( 56,132)   DRY( 56,133)   
    DRY( 56,134)   DRY( 56,135)   DRY( 56,136)   DRY( 56,137)   DRY( 56,138)   
    DRY( 56,139)   DRY( 56,140)   DRY( 56,141)   DRY( 56,142)   DRY( 56,143)   
    DRY( 56,144)   DRY( 56,145)   DRY( 56,146)   DRY( 56,147)   DRY( 56,148)   
    DRY( 56,149)   DRY( 56,150)   DRY( 56,151)   DRY( 56,152)   DRY( 56,153)   
    DRY( 56,154)   DRY( 56,155)   DRY( 56,156)   DRY( 56,157)   DRY( 56,158)   
    DRY( 56,159)   DRY( 56,160)   DRY( 56,161)   DRY( 56,162)   DRY( 56,163)   
    DRY( 56,164)   DRY( 56,165)   DRY( 56,166)   DRY( 56,167)   DRY( 56,168)   
    DRY( 56,169)   DRY( 56,170)   DRY( 56,171)   DRY( 56,172)   DRY( 56,173)   
    DRY( 56,174)   DRY( 56,175)   DRY( 56,176)   DRY( 56,177)   DRY( 56,178)   
    DRY( 56,179)   DRY( 56,180)   DRY( 56,181)   DRY( 56,182)   DRY( 56,183)   
    DRY( 56,184)   DRY( 56,185)   DRY( 56,186)   DRY( 56,187)   DRY( 56,188)   
    DRY( 56,189)   DRY( 56,190)   DRY( 56,191)   DRY( 56,192)   DRY( 56,193)   
    DRY( 56,194)   DRY( 56,195)   DRY( 56,196)   DRY( 56,197)   DRY( 56,198)   
    DRY( 56,199)   DRY( 56,200)   DRY( 56,201)   DRY( 56,202)   DRY( 56,203)   
    DRY( 56,204)   DRY( 56,205)   DRY( 56,206)   DRY( 56,207)   DRY( 56,208)   
    DRY( 56,209)   DRY( 56,210)   DRY( 56,211)   DRY( 56,212)   DRY( 56,213)   
    DRY( 56,214)   DRY( 56,215)   DRY( 56,216)   DRY( 56,217)   DRY( 56,218)   
    DRY( 56,219)   DRY( 56,220)   DRY( 57,162)   DRY( 57,163)   DRY( 57,164)   
    DRY( 57,165)   DRY( 57,166)   DRY( 57,167)   DRY( 57,168)   DRY( 57,169)   
    DRY( 57,170)   DRY( 57,171)   DRY( 57,172)   DRY( 57,173)   DRY( 57,174)   
    DRY( 57,175)   DRY( 57,176)   DRY( 57,177)   DRY( 57,178)   DRY( 57,179)   
    DRY( 57,180)   DRY( 57,181)   DRY( 57,182)   DRY( 57,183)   DRY( 57,184)   
    DRY( 57,185)   DRY( 57,186)   DRY( 57,187)   DRY( 57,188)   DRY( 57,189)   
    DRY( 57,190)   DRY( 57,191)   DRY( 57,192)   DRY( 57,193)   DRY( 57,194)   
    DRY( 57,195)   DRY( 57,196)   DRY( 57,197)   DRY( 57,198)   DRY( 57,199)   
    DRY( 57,200)   DRY( 57,201)   DRY( 57,202)   DRY( 57,203)   DRY( 57,204)   
    DRY( 57,205)   DRY( 57,206)   DRY( 57,207)   DRY( 57,208)   DRY( 57,209)   
    DRY( 57,210)   DRY( 57,211)   DRY( 57,212)   DRY( 57,213)   DRY( 57,214)   
    DRY( 57,215)   DRY( 57,216)   DRY( 57,217)   DRY( 57,218)   DRY( 57,219)   
    DRY( 57,220)   DRY( 58,217)   DRY( 58,218)   DRY( 58,219)   DRY( 58,220)   

 CELL CONVERSIONS FOR ITER.=  4  LAYER= 22  STEP=  1  PERIOD=   1   (ROW,COL)
    DRY( 52,  1)   DRY( 52,  2)   DRY( 52,  3)   DRY( 52,  4)   DRY( 52,  5)   
    DRY( 52,  6)   DRY( 52,  7)   DRY( 52,  8)   DRY( 52,  9)   DRY( 52, 10)   
    DRY( 52, 11)   DRY( 52, 12)   DRY( 52, 13)   DRY( 52, 14)   DRY( 52, 15)   
    DRY( 52, 16)   DRY( 52, 17)   DRY( 52, 18)   DRY( 52, 19)   DRY( 52, 20)   
    DRY( 52, 21)   DRY( 52, 22)   DRY( 52, 23)   DRY( 52, 24)   DRY( 52, 25)   
    DRY( 52, 26)   DRY( 52, 27)   DRY( 52, 28)   DRY( 52, 29)   DRY( 52, 30)   
    DRY( 52, 31)   DRY( 52, 32)   DRY( 52, 33)   DRY( 52, 34)   DRY( 52, 35)   
    DRY( 52, 36)   DRY( 52, 37)   DRY( 52, 38)   DRY( 52, 39)   DRY( 52, 40)   
    DRY( 52, 41)   DRY( 52, 42)   DRY( 52, 43)   DRY( 52, 44)   DRY( 52, 45)   
    DRY( 52, 46)   DRY( 52, 47)   DRY( 52, 48)   DRY( 52, 49)   DRY( 52, 50)   
    DRY( 52, 51)   DRY( 52, 52)   DRY( 52, 53)   DRY( 52, 54)   DRY( 52, 55)   
    DRY( 52, 56)   DRY( 52, 57)   DRY( 52, 58)   DRY( 52, 59)   DRY( 52, 60)   
    DRY( 52, 61)   DRY( 52, 62)   DRY( 52, 63)   DRY( 52, 64)   DRY( 52, 65)   
    DRY( 52, 66)   DRY( 52, 67)   DRY( 52, 68)   DRY( 52, 69)   DRY( 52, 70)   
    DRY( 52, 71)   DRY( 52, 72)   DRY( 52, 73)   DRY( 52, 74)   DRY( 52, 75)   
    DRY( 52, 76)   DRY( 52, 77)   DRY( 52, 78)   DRY( 52, 79)   DRY( 52, 80)   
    DRY( 52, 81)   DRY( 52, 82)   DRY( 52, 83)   DRY( 52, 84)   DRY( 52, 85)   
    DRY( 52, 86)   DRY( 52, 87)   DRY( 52, 88)   DRY( 52, 89)   DRY( 52, 90)   
    DRY( 52, 91)   DRY( 52, 92)   DRY( 52, 93)   DRY( 52, 94)   DRY( 52, 95)   
    DRY( 52, 96)   DRY( 52, 97)   DRY( 52, 98)   DRY( 52, 99)   DRY( 52,100)   
    DRY( 52,101)   DRY( 52,102)   DRY( 52,103)   DRY( 52,104)   DRY( 52,105)   
    DRY( 52,106)   DRY( 52,107)   DRY( 52,108)   DRY( 52,109)   DRY( 52,110)   
    DRY( 52,111)   DRY( 52,112)   DRY( 52,113)   DRY( 52,114)   DRY( 52,115)   
    DRY( 52,116)   DRY( 52,117)   DRY( 52,118)   DRY( 52,119)   DRY( 52,120)   
    DRY( 52,121)   DRY( 52,122)   DRY( 52,123)   DRY( 52,124)   DRY( 52,125)   
    DRY( 52,126)   DRY( 52,127)   DRY( 52,128)   DRY( 52,129)   DRY( 52,130)   
    DRY( 52,131)   DRY( 52,132)   DRY( 52,133)   DRY( 52,134)   DRY( 52,135)   
    DRY( 52,136)   DRY( 52,137)   DRY( 52,138)   DRY( 52,139)   DRY( 52,140)   
    DRY( 52,141)   DRY( 52,142)   DRY( 52,143)   DRY( 52,144)   DRY( 52,145)   
    DRY( 52,146)   DRY( 52,147)   DRY( 52,148)   DRY( 52,149)   DRY( 52,150)   
    DRY( 52,151)   DRY( 52,152)   DRY( 52,153)   DRY( 52,154)   DRY( 52,155)   
    DRY( 52,156)   DRY( 52,157)   DRY( 52,158)   DRY( 52,159)   DRY( 52,160)   
    DRY( 52,161)   DRY( 52,162)   DRY( 52,163)   DRY( 52,164)   DRY( 52,165)   
    DRY( 52,166)   DRY( 52,167)   DRY( 52,168)   DRY( 52,169)   DRY( 52,170)   
    DRY( 52,171)   DRY( 52,172)   DRY( 52,173)   DRY( 52,174)   DRY( 52,175)   
    DRY( 52,176)   DRY( 52,177)   DRY( 52,178)   DRY( 52,179)   DRY( 52,180)   
    DRY( 52,181)   DRY( 52,182)   DRY( 52,183)   DRY( 52,184)   DRY( 52,185)   
    DRY( 52,186)   DRY( 52,187)   DRY( 52,188)   DRY( 52,189)   DRY( 52,211)   
    DRY( 52,212)   DRY( 52,213)   DRY( 52,214)   DRY( 52,215)   DRY( 52,219)   
    DRY( 52,220)   DRY( 53,  1)   DRY( 53,  2)   DRY( 53,  3)   DRY( 53,  4)   
    DRY( 53,  5)   DRY( 53,  6)   DRY( 53,  7)   DRY( 53,  8)   DRY( 53,  9)   
    DRY( 53, 10)   DRY( 53, 11)   DRY( 53, 12)   DRY( 53, 13)   DRY( 53, 14)   
    DRY( 53, 15)   DRY( 53, 16)   DRY( 53, 17)   DRY( 53, 18)   DRY( 53, 19)   
    DRY( 53, 20)   DRY( 53, 21)   DRY( 53, 22)   DRY( 53, 23)   DRY( 53, 24)   
    DRY( 53, 25)   DRY( 53, 26)   DRY( 53, 27)   DRY( 53, 28)   DRY( 53, 29)   
    DRY( 53, 30)   DRY( 53, 31)   DRY( 53, 32)   DRY( 53, 33)   DRY( 53, 34)   
    DRY( 53, 35)   DRY( 53, 36)   DRY( 53, 37)   DRY( 53, 38)   DRY( 53, 39)   
    DRY( 53, 40)   DRY( 53, 41)   DRY( 53, 42)   DRY( 53, 43)   DRY( 53, 44)   
    DRY( 53, 45)   DRY( 53, 46)   DRY( 53, 47)   DRY( 53, 48)   DRY( 53, 49)   
    DRY( 53, 50)   DRY( 53, 51)   DRY( 53, 52)   DRY( 53, 53)   DRY( 53, 54)   
    DRY( 53, 55)   DRY( 53, 56)   DRY( 53, 57)   DRY( 53, 58)   DRY( 53, 59)   
    DRY( 53, 60)   DRY( 53, 61)   DRY( 53, 62)   DRY( 53, 63)   DRY( 53, 64)   
    DRY( 53, 65)   DRY( 53, 66)   DRY( 53, 67)   DRY( 53, 68)   DRY( 53, 69)   
    DRY( 53, 70)   DRY( 53, 71)   DRY( 53, 72)   DRY( 53, 73)   DRY( 53, 74)   
    DRY( 53, 75)   DRY( 53, 76)   DRY( 53, 77)   DRY( 53, 78)   DRY( 53, 79)   
    DRY( 53, 80)   DRY( 53, 81)   DRY( 53, 82)   DRY( 53, 83)   DRY( 53, 84)   
    DRY( 53, 85)   DRY( 53, 86)   DRY( 53, 87)   DRY( 53, 88)   DRY( 53, 89)   
    DRY( 53, 90)   DRY( 53, 91)   DRY( 53, 92)   DRY( 53, 93)   DRY( 53, 94)   
    DRY( 53, 95)   DRY( 53, 96)   DRY( 53, 97)   DRY( 53, 98)   DRY( 53, 99)   
    DRY( 53,100)   DRY( 53,101)   DRY( 53,102)   DRY( 53,103)   DRY( 53,104)   
    DRY( 53,105)   DRY( 53,106)   DRY( 53,107)   DRY( 53,108)   DRY( 53,109)   
    DRY( 53,110)   DRY( 53,111)   DRY( 53,112)   DRY( 53,113)   DRY( 53,114)   
    DRY( 53,115)   DRY( 53,116)   DRY( 53,117)   DRY( 53,118)   DRY( 53,119)   
    DRY( 53,120)   DRY( 53,121)   DRY( 53,122)   DRY( 53,123)   DRY( 53,124)   
    DRY( 53,125)   DRY( 53,126)   DRY( 53,127)   DRY( 53,128)   DRY( 53,129)   
    DRY( 53,130)   DRY( 53,131)   DRY( 53,132)   DRY( 53,133)   DRY( 53,134)   
    DRY( 53,135)   DRY( 53,136)   DRY( 53,137)   DRY( 53,138)   DRY( 53,139)   
    DRY( 53,140)   DRY( 53,141)   DRY( 53,142)   DRY( 53,143)   DRY( 53,144)   
    DRY( 53,145)   DRY( 53,146)   DRY( 53,147)   DRY( 53,148)   DRY( 53,149)   
    DRY( 53,150)   DRY( 53,151)   DRY( 53,152)   DRY( 53,153)   DRY( 53,154)   
    DRY( 53,155)   DRY( 53,156)   DRY( 53,157)   DRY( 53,158)   DRY( 53,159)   
    DRY( 53,160)   DRY( 53,161)   DRY( 53,162)   DRY( 53,163)   DRY( 53,164)   
    DRY( 53,165)   DRY( 53,166)   DRY( 53,167)   DRY( 53,168)   DRY( 53,169)   
    DRY( 53,170)   DRY( 53,171)   DRY( 53,172)   DRY( 53,173)   DRY( 53,174)   
    DRY( 53,175)   DRY( 53,176)   DRY( 53,177)   DRY( 53,178)   DRY( 53,179)   
    DRY( 53,180)   DRY( 53,181)   DRY( 53,182)   DRY( 53,183)   DRY( 53,184)   
    DRY( 53,185)   DRY( 53,186)   DRY( 53,187)   DRY( 53,188)   DRY( 53,189)   
    DRY( 53,190)   DRY( 53,191)   DRY( 53,192)   DRY( 53,193)   DRY( 53,194)   
    DRY( 53,195)   DRY( 53,196)   DRY( 53,197)   DRY( 53,198)   DRY( 53,199)   
    DRY( 53,200)   DRY( 53,201)   DRY( 53,202)   DRY( 53,203)   DRY( 53,204)   
    DRY( 53,205)   DRY( 53,206)   DRY( 53,207)   DRY( 53,208)   DRY( 53,209)   
    DRY( 53,210)   DRY( 53,211)   DRY( 53,212)   DRY( 53,213)   DRY( 53,214)   
    DRY( 53,215)   DRY( 53,216)   DRY( 53,217)   DRY( 53,218)   DRY( 53,219)   
    DRY( 53,220)   DRY( 54,  1)   DRY( 54,  2)   DRY( 54,  3)   DRY( 54,  4)   
    DRY( 54,  5)   DRY( 54,  6)   DRY( 54,  7)   DRY( 54,  8)   DRY( 54,  9)   
    DRY( 54, 10)   DRY( 54, 11)   DRY( 54, 12)   DRY( 54, 13)   DRY( 54, 14)   
    DRY( 54, 15)   DRY( 54, 16)   DRY( 54, 17)   DRY( 54, 18)   DRY( 54, 19)   
    DRY( 54, 20)   DRY( 54, 21)   DRY( 54, 22)   DRY( 54, 23)   DRY( 54, 24)   
    DRY( 54, 25)   DRY( 54, 26)   DRY( 54, 27)   DRY( 54, 28)   DRY( 54, 29)   
    DRY( 54, 30)   DRY( 54, 31)   DRY( 54, 32)   DRY( 54, 33)   DRY( 54, 34)   
    DRY( 54, 35)   DRY( 54, 36)   DRY( 54, 37)   DRY( 54, 38)   DRY( 54, 39)   
    DRY( 54, 40)   DRY( 54, 41)   DRY( 54, 42)   DRY( 54, 43)   DRY( 54, 44)   
    DRY( 54, 45)   DRY( 54, 46)   DRY( 54, 47)   DRY( 54, 48)   DRY( 54, 49)   
    DRY( 54, 50)   DRY( 54, 51)   DRY( 54, 52)   DRY( 54, 53)   DRY( 54, 54)   
    DRY( 54, 55)   DRY( 54, 56)   DRY( 54, 57)   DRY( 54, 58)   DRY( 54, 59)   
    DRY( 54, 60)   DRY( 54, 61)   DRY( 54, 62)   DRY( 54, 63)   DRY( 54, 64)   
    DRY( 54, 65)   DRY( 54, 66)   DRY( 54, 67)   DRY( 54, 68)   DRY( 54, 69)   
    DRY( 54, 70)   DRY( 54, 71)   DRY( 54, 72)   DRY( 54, 73)   DRY( 54, 74)   
    DRY( 54, 75)   DRY( 54, 76)   DRY( 54, 77)   DRY( 54, 78)   DRY( 54, 79)   
    DRY( 54, 80)   DRY( 54, 81)   DRY( 54, 82)   DRY( 54, 83)   DRY( 54, 84)   
    DRY( 54, 85)   DRY( 54, 86)   DRY( 54, 87)   DRY( 54, 88)   DRY( 54, 89)   
    DRY( 54, 90)   DRY( 54, 91)   DRY( 54, 92)   DRY( 54, 93)   DRY( 54, 94)   
    DRY( 54, 95)   DRY( 54, 96)   DRY( 54, 97)   DRY( 54, 98)   DRY( 54, 99)   
    DRY( 54,100)   DRY( 54,101)   DRY( 54,102)   DRY( 54,103)   DRY( 54,104)   
    DRY( 54,105)   DRY( 54,106)   DRY( 54,107)   DRY( 54,108)   DRY( 54,109)   
    DRY( 54,110)   DRY( 54,111)   DRY( 54,112)   DRY( 54,113)   DRY( 54,114)   
    DRY( 54,115)   DRY( 54,116)   DRY( 54,117)   DRY( 54,118)   DRY( 54,119)   
    DRY( 54,120)   DRY( 54,121)   DRY( 54,122)   DRY( 54,123)   DRY( 54,124)   
    DRY( 54,125)   DRY( 54,126)   DRY( 54,127)   DRY( 54,128)   DRY( 54,129)   
    DRY( 54,130)   DRY( 54,131)   DRY( 54,132)   DRY( 54,133)   DRY( 54,134)   
    DRY( 54,135)   DRY( 54,136)   DRY( 54,137)   DRY( 54,138)   DRY( 54,139)   
    DRY( 54,140)   DRY( 54,141)   DRY( 54,142)   DRY( 54,143)   DRY( 54,144)   
    DRY( 54,145)   DRY( 54,146)   DRY( 54,147)   DRY( 54,148)   DRY( 54,149)   
    DRY( 54,150)   DRY( 54,151)   DRY( 54,152)   DRY( 54,153)   DRY( 54,154)   
    DRY( 54,155)   DRY( 54,156)   DRY( 54,157)   DRY( 54,158)   DRY( 54,159)   
    DRY( 54,160)   DRY( 54,161)   DRY( 54,162)   DRY( 54,163)   DRY( 54,164)   
    DRY( 54,165)   DRY( 54,166)   DRY( 54,167)   DRY( 54,168)   DRY( 54,169)   
    DRY( 54,170)   DRY( 54,171)   DRY( 54,172)   DRY( 54,173)   DRY( 54,174)   
    DRY( 54,175)   DRY( 54,176)   DRY( 54,177)   DRY( 54,178)   DRY( 54,179)   
    DRY( 54,180)   DRY( 54,181)   DRY( 54,182)   DRY( 54,183)   DRY( 54,184)   
    DRY( 54,185)   DRY( 54,186)   DRY( 54,187)   DRY( 54,188)   DRY( 54,189)   
    DRY( 54,190)   DRY( 54,191)   DRY( 54,192)   DRY( 54,193)   DRY( 54,194)   
    DRY( 54,195)   DRY( 54,196)   DRY( 54,197)   DRY( 54,198)   DRY( 54,199)   
    DRY( 54,200)   DRY( 54,201)   DRY( 54,202)   DRY( 54,203)   DRY( 54,204)   
    DRY( 54,205)   DRY( 54,206)   DRY( 54,207)   DRY( 54,208)   DRY( 54,209)   
    DRY( 54,210)   DRY( 54,211)   DRY( 54,212)   DRY( 54,213)   DRY( 54,214)   
    DRY( 54,215)   DRY( 54,216)   DRY( 54,217)   DRY( 54,218)   DRY( 54,219)   
    DRY( 54,220)   DRY( 55,  1)   DRY( 55,  2)   DRY( 55,  3)   DRY( 55,  4)   
    DRY( 55,  5)   DRY( 55,  6)   DRY( 55,  7)   DRY( 55,  8)   DRY( 55,  9)   
    DRY( 55, 10)   DRY( 55, 11)   DRY( 55, 12)   DRY( 55, 13)   DRY( 55, 14)   
    DRY( 55, 15)   DRY( 55, 16)   DRY( 55, 17)   DRY( 55, 18)   DRY( 55, 19)   
    DRY( 55, 20)   DRY( 55, 21)   DRY( 55, 22)   DRY( 55, 23)   DRY( 55, 24)   
    DRY( 55, 25)   DRY( 55, 26)   DRY( 55, 27)   DRY( 55, 28)   DRY( 55, 29)   
    DRY( 55, 30)   DRY( 55, 31)   DRY( 55, 32)   DRY( 55, 33)   DRY( 55, 34)   
    DRY( 55, 35)   DRY( 55, 36)   DRY( 55, 37)   DRY( 55, 38)   DRY( 55, 39)   
    DRY( 55, 40)   DRY( 55, 41)   DRY( 55, 42)   DRY( 55, 43)   DRY( 55, 44)   
    DRY( 55, 45)   DRY( 55, 46)   DRY( 55, 47)   DRY( 55, 48)   DRY( 55, 49)   
    DRY( 55, 50)   DRY( 55, 51)   DRY( 55, 52)   DRY( 55, 53)   DRY( 55, 54)   
    DRY( 55, 55)   DRY( 55, 56)   DRY( 55, 57)   DRY( 55, 58)   DRY( 55, 59)   
    DRY( 55, 60)   DRY( 55, 61)   DRY( 55, 62)   DRY( 55, 63)   DRY( 55, 64)   
    DRY( 55, 65)   DRY( 55, 66)   DRY( 55, 67)   DRY( 55, 68)   DRY( 55, 69)   
    DRY( 55, 70)   DRY( 55, 71)   DRY( 55, 72)   DRY( 55, 73)   DRY( 55, 74)   
    DRY( 55, 75)   DRY( 55, 76)   DRY( 55, 77)   DRY( 55, 78)   DRY( 55, 79)   
    DRY( 55, 80)   DRY( 55, 81)   DRY( 55, 82)   DRY( 55, 83)   DRY( 55, 84)   
    DRY( 55, 85)   DRY( 55, 86)   DRY( 55, 87)   DRY( 55, 88)   DRY( 55, 89)   
    DRY( 55, 90)   DRY( 55, 91)   DRY( 55, 92)   DRY( 55, 93)   DRY( 55, 94)   
    DRY( 55, 95)   DRY( 55, 96)   DRY( 55, 97)   DRY( 55, 98)   DRY( 55, 99)   
    DRY( 55,100)   DRY( 55,101)   DRY( 55,102)   DRY( 55,103)   DRY( 55,104)   
    DRY( 55,105)   DRY( 55,106)   DRY( 55,107)   DRY( 55,108)   DRY( 55,109)   
    DRY( 55,110)   DRY( 55,111)   DRY( 55,112)   DRY( 55,113)   DRY( 55,114)   
    DRY( 55,115)   DRY( 55,116)   DRY( 55,117)   DRY( 55,118)   DRY( 55,119)   
    DRY( 55,120)   DRY( 55,121)   DRY( 55,122)   DRY( 55,123)   DRY( 55,124)   
    DRY( 55,125)   DRY( 55,126)   DRY( 55,127)   DRY( 55,128)   DRY( 55,129)   
    DRY( 55,130)   DRY( 55,131)   DRY( 55,132)   DRY( 55,133)   DRY( 55,134)   
    DRY( 55,135)   DRY( 55,136)   DRY( 55,137)   DRY( 55,138)   DRY( 55,139)   
    DRY( 55,140)   DRY( 55,141)   DRY( 55,142)   DRY( 55,143)   DRY( 55,144)   
    DRY( 55,145)   DRY( 55,146)   DRY( 55,147)   DRY( 55,148)   DRY( 55,149)   
    DRY( 55,150)   DRY( 55,151)   DRY( 55,152)   DRY( 55,153)   DRY( 55,154)   
    DRY( 55,155)   DRY( 55,156)   DRY( 55,157)   DRY( 55,158)   DRY( 55,159)   
    DRY( 55,160)   DRY( 55,161)   DRY( 55,162)   DRY( 55,163)   DRY( 55,164)   
    DRY( 55,165)   DRY( 55,166)   DRY( 55,167)   DRY( 55,168)   DRY( 55,169)   
    DRY( 55,170)   DRY( 55,171)   DRY( 55,172)   DRY( 55,173)   DRY( 55,174)   
    DRY( 55,175)   DRY( 55,176)   DRY( 55,177)   DRY( 55,178)   DRY( 55,179)   
    DRY( 55,180)   DRY( 55,181)   DRY( 55,182)   DRY( 55,183)   DRY( 55,184)   
    DRY( 55,185)   DRY( 55,186)   DRY( 55,187)   DRY( 55,188)   DRY( 55,189)   
    DRY( 55,190)   DRY( 55,191)   DRY( 55,192)   DRY( 55,193)   DRY( 55,194)   
    DRY( 55,195)   DRY( 55,196)   DRY( 55,197)   DRY( 55,198)   DRY( 55,199)   
    DRY( 55,200)   DRY( 55,201)   DRY( 55,202)   DRY( 55,203)   DRY( 55,204)   
    DRY( 55,205)   DRY( 55,206)   DRY( 55,207)   DRY( 55,208)   DRY( 55,209)   
    DRY( 55,210)   DRY( 55,211)   DRY( 55,212)   DRY( 55,213)   DRY( 55,214)   
    DRY( 55,215)   DRY( 55,216)   DRY( 55,217)   DRY( 55,218)   DRY( 55,219)   
    DRY( 55,220)   DRY( 56,  1)   DRY( 56,  2)   DRY( 56,  3)   DRY( 56,  4)   
    DRY( 56,  5)   DRY( 56,  6)   DRY( 56,  7)   DRY( 56,  8)   DRY( 56,  9)   
    DRY( 56, 10)   DRY( 56, 11)   DRY( 56, 12)   DRY( 56, 13)   DRY( 56, 14)   
    DRY( 56, 15)   DRY( 56, 16)   DRY( 56, 17)   DRY( 56, 18)   DRY( 56, 19)   
    DRY( 56, 20)   DRY( 56, 21)   DRY( 56, 22)   DRY( 56, 23)   DRY( 56, 24)   
    DRY( 56, 25)   DRY( 56, 26)   DRY( 56, 27)   DRY( 56, 28)   DRY( 56, 29)   
    DRY( 56, 30)   DRY( 56, 31)   DRY( 56, 32)   DRY( 56, 33)   DRY( 56, 34)   
    DRY( 56, 35)   DRY( 56, 36)   DRY( 56, 37)   DRY( 56, 38)   DRY( 56, 39)   
    DRY( 56, 40)   DRY( 56, 41)   DRY( 56, 42)   DRY( 56, 43)   DRY( 56, 44)   
    DRY( 56, 45)   DRY( 56, 46)   DRY( 56, 47)   DRY( 56, 48)   DRY( 56, 49)   
    DRY( 56, 50)   DRY( 56, 51)   DRY( 56, 52)   DRY( 56, 53)   DRY( 56, 54)   
    DRY( 56, 55)   DRY( 56, 56)   DRY( 56, 57)   DRY( 56, 58)   DRY( 56, 59)   
    DRY( 56, 60)   DRY( 56, 61)   DRY( 56, 62)   DRY( 56, 63)   DRY( 56, 64)   
    DRY( 56, 65)   DRY( 56, 66)   DRY( 56, 67)   DRY( 56, 68)   DRY( 56, 69)   
    DRY( 56, 70)   DRY( 56, 71)   DRY( 56, 72)   DRY( 56, 73)   DRY( 56, 74)   
    DRY( 56, 75)   DRY( 56, 76)   DRY( 56, 77)   DRY( 56, 78)   DRY( 56, 79)   
    DRY( 56, 80)   DRY( 56, 81)   DRY( 56, 82)   DRY( 56, 83)   DRY( 56, 84)   
    DRY( 56, 85)   DRY( 56, 86)   DRY( 56, 87)   DRY( 56, 88)   DRY( 56, 89)   
    DRY( 56, 90)   DRY( 56, 91)   DRY( 56, 92)   DRY( 56, 93)   DRY( 56, 94)   
    DRY( 56, 95)   DRY( 56, 96)   DRY( 56, 97)   DRY( 56, 98)   DRY( 56, 99)   
    DRY( 56,100)   DRY( 56,101)   DRY( 56,102)   DRY( 56,103)   DRY( 56,104)   
    DRY( 56,105)   DRY( 56,106)   DRY( 56,107)   DRY( 56,108)   DRY( 56,109)   
    DRY( 56,110)   DRY( 56,111)   DRY( 56,112)   DRY( 56,113)   DRY( 56,114)   
    DRY( 56,115)   DRY( 56,116)   DRY( 56,117)   DRY( 56,118)   DRY( 56,119)   
    DRY( 56,120)   DRY( 56,121)   DRY( 56,122)   DRY( 56,123)   DRY( 56,124)   
    DRY( 56,125)   DRY( 56,126)   DRY( 56,127)   DRY( 56,128)   DRY( 56,129)   
    DRY( 56,130)   DRY( 56,131)   DRY( 56,132)   DRY( 56,133)   DRY( 56,134)   
    DRY( 56,135)   DRY( 56,136)   DRY( 56,137)   DRY( 56,138)   DRY( 56,139)   
    DRY( 56,140)   DRY( 56,141)   DRY( 56,142)   DRY( 56,143)   DRY( 56,144)   
    DRY( 56,145)   DRY( 56,146)   DRY( 56,147)   DRY( 56,148)   DRY( 56,149)   
    DRY( 56,150)   DRY( 56,151)   DRY( 56,152)   DRY( 56,153)   DRY( 56,154)   
    DRY( 56,155)   DRY( 56,156)   DRY( 56,157)   DRY( 56,158)   DRY( 56,159)   
    DRY( 56,160)   DRY( 56,161)   DRY( 56,162)   DRY( 56,163)   DRY( 56,164)   
    DRY( 56,165)   DRY( 56,166)   DRY( 56,167)   DRY( 56,168)   DRY( 56,169)   
    DRY( 56,170)   DRY( 56,171)   DRY( 56,172)   DRY( 56,173)   DRY( 56,174)   
    DRY( 56,175)   DRY( 56,176)   DRY( 56,177)   DRY( 56,178)   DRY( 56,179)   
    DRY( 56,180)   DRY( 56,181)   DRY( 56,182)   DRY( 56,183)   DRY( 56,184)   
    DRY( 56,185)   DRY( 56,186)   DRY( 56,187)   DRY( 56,188)   DRY( 56,189)   
    DRY( 56,190)   DRY( 56,191)   DRY( 56,192)   DRY( 56,193)   DRY( 56,194)   
    DRY( 56,195)   DRY( 56,196)   DRY( 56,197)   DRY( 56,198)   DRY( 56,199)   
    DRY( 56,200)   DRY( 56,201)   DRY( 56,202)   DRY( 56,203)   DRY( 56,204)   
    DRY( 56,205)   DRY( 56,206)   DRY( 56,207)   DRY( 56,208)   DRY( 56,209)   
    DRY( 56,210)   DRY( 56,211)   DRY( 56,212)   DRY( 56,213)   DRY( 56,214)   
    DRY( 56,215)   DRY( 56,216)   DRY( 56,217)   DRY( 56,218)   DRY( 56,219)   
    DRY( 56,220)   DRY( 57,  1)   DRY( 57,  2)   DRY( 57,  3)   DRY( 57,  4)   
    DRY( 57,  5)   DRY( 57,  6)   DRY( 57,  7)   DRY( 57,  8)   DRY( 57,  9)   
    DRY( 57, 10)   DRY( 57, 11)   DRY( 57, 12)   DRY( 57, 13)   DRY( 57, 14)   
    DRY( 57, 15)   DRY( 57, 16)   DRY( 57, 17)   DRY( 57, 18)   DRY( 57, 19)   
    DRY( 57, 20)   DRY( 57, 21)   DRY( 57, 22)   DRY( 57, 23)   DRY( 57, 24)   
    DRY( 57, 25)   DRY( 57, 26)   DRY( 57, 27)   DRY( 57, 28)   DRY( 57, 29)   
    DRY( 57, 30)   DRY( 57, 31)   DRY( 57, 32)   DRY( 57, 33)   DRY( 57, 34)   
    DRY( 57, 35)   DRY( 57, 36)   DRY( 57, 37)   DRY( 57, 38)   DRY( 57, 39)   
    DRY( 57, 40)   DRY( 57, 41)   DRY( 57, 42)   DRY( 57, 43)   DRY( 57, 44)   
    DRY( 57, 45)   DRY( 57, 46)   DRY( 57, 47)   DRY( 57, 48)   DRY( 57, 49)   
    DRY( 57, 50)   DRY( 57, 51)   DRY( 57, 52)   DRY( 57, 53)   DRY( 57, 54)   
    DRY( 57, 55)   DRY( 57, 56)   DRY( 57, 57)   DRY( 57, 58)   DRY( 57, 59)   
    DRY( 57, 60)   DRY( 57, 61)   DRY( 57, 62)   DRY( 57, 63)   DRY( 57, 64)   
    DRY( 57, 65)   DRY( 57, 66)   DRY( 57, 67)   DRY( 57, 68)   DRY( 57, 69)   
    DRY( 57, 70)   DRY( 57, 71)   DRY( 57, 72)   DRY( 57, 73)   DRY( 57, 74)   
    DRY( 57, 75)   DRY( 57, 76)   DRY( 57, 77)   DRY( 57, 78)   DRY( 57, 79)   
    DRY( 57, 80)   DRY( 57, 81)   DRY( 57, 82)   DRY( 57, 83)   DRY( 57, 84)   
    DRY( 57, 85)   DRY( 57, 86)   DRY( 57, 87)   DRY( 57, 88)   DRY( 57, 89)   
    DRY( 57, 90)   DRY( 57, 91)   DRY( 57, 92)   DRY( 57, 93)   DRY( 57, 94)   
    DRY( 57, 95)   DRY( 57, 96)   DRY( 57, 97)   DRY( 57, 98)   DRY( 57, 99)   
    DRY( 57,100)   DRY( 57,101)   DRY( 57,102)   DRY( 57,103)   DRY( 57,104)   
    DRY( 57,105)   DRY( 57,106)   DRY( 57,107)   DRY( 57,108)   DRY( 57,109)   
    DRY( 57,110)   DRY( 57,111)   DRY( 57,112)   DRY( 57,113)   DRY( 57,114)   
    DRY( 57,115)   DRY( 57,116)   DRY( 57,117)   DRY( 57,118)   DRY( 57,119)   
    DRY( 57,120)   DRY( 57,121)   DRY( 57,122)   DRY( 57,123)   DRY( 57,124)   
    DRY( 57,125)   DRY( 57,126)   DRY( 57,127)   DRY( 57,128)   DRY( 57,129)   
    DRY( 57,130)   DRY( 57,131)   DRY( 57,132)   DRY( 57,133)   DRY( 57,134)   
    DRY( 57,135)   DRY( 57,136)   DRY( 57,137)   DRY( 57,138)   DRY( 57,139)   
    DRY( 57,140)   DRY( 57,141)   DRY( 57,142)   DRY( 57,143)   DRY( 57,144)   
    DRY( 57,145)   DRY( 57,146)   DRY( 57,147)   DRY( 57,148)   DRY( 57,149)   
    DRY( 57,150)   DRY( 57,151)   DRY( 57,152)   DRY( 57,153)   DRY( 57,154)   
    DRY( 57,155)   DRY( 57,156)   DRY( 57,157)   DRY( 57,158)   DRY( 57,159)   
    DRY( 57,160)   DRY( 57,161)   DRY( 57,162)   DRY( 57,163)   DRY( 57,164)   
    DRY( 57,165)   DRY( 57,166)   DRY( 57,167)   DRY( 57,168)   DRY( 57,169)   
    DRY( 57,170)   DRY( 57,171)   DRY( 57,172)   DRY( 57,173)   DRY( 57,174)   
    DRY( 57,175)   DRY( 57,176)   DRY( 57,177)   DRY( 57,178)   DRY( 57,179)   
    DRY( 57,180)   DRY( 57,181)   DRY( 57,182)   DRY( 57,183)   DRY( 57,184)   
    DRY( 57,185)   DRY( 57,186)   DRY( 57,187)   DRY( 57,188)   DRY( 57,189)   
    DRY( 57,190)   DRY( 57,191)   DRY( 57,192)   DRY( 57,193)   DRY( 57,194)   
    DRY( 57,195)   DRY( 57,196)   DRY( 57,197)   DRY( 57,198)   DRY( 57,199)   
    DRY( 57,200)   DRY( 57,201)   DRY( 57,202)   DRY( 57,203)   DRY( 57,204)   
    DRY( 57,205)   DRY( 57,206)   DRY( 57,207)   DRY( 57,208)   DRY( 57,209)   
    DRY( 57,210)   DRY( 57,211)   DRY( 57,212)   DRY( 57,213)   DRY( 57,214)   
    DRY( 57,215)   DRY( 57,216)   DRY( 57,217)   DRY( 57,218)   DRY( 57,219)   
    DRY( 57,220)   DRY( 58,  1)   DRY( 58,  2)   DRY( 58,  3)   DRY( 58,  4)   
    DRY( 58,  5)   DRY( 58,  6)   DRY( 58,  7)   DRY( 58,  8)   DRY( 58,  9)   
    DRY( 58, 10)   DRY( 58, 11)   DRY( 58, 12)   DRY( 58, 13)   DRY( 58, 14)   
    DRY( 58, 15)   DRY( 58, 16)   DRY( 58, 17)   DRY( 58, 18)   DRY( 58, 19)   
    DRY( 58, 20)   DRY( 58, 21)   DRY( 58, 22)   DRY( 58, 23)   DRY( 58, 24)   
    DRY( 58, 25)   DRY( 58, 26)   DRY( 58, 27)   DRY( 58, 28)   DRY( 58, 29)   
    DRY( 58, 30)   DRY( 58, 31)   DRY( 58, 32)   DRY( 58, 33)   DRY( 58, 34)   
    DRY( 58, 35)   DRY( 58, 36)   DRY( 58, 37)   DRY( 58, 38)   DRY( 58, 39)   
    DRY( 58, 40)   DRY( 58, 41)   DRY( 58, 42)   DRY( 58, 43)   DRY( 58, 44)   
    DRY( 58, 45)   DRY( 58, 46)   DRY( 58, 47)   DRY( 58, 48)   DRY( 58, 49)   
    DRY( 58, 50)   DRY( 58, 51)   DRY( 58, 52)   DRY( 58, 53)   DRY( 58, 54)   
    DRY( 58, 55)   DRY( 58, 56)   DRY( 58, 57)   DRY( 58, 58)   DRY( 58, 59)   
    DRY( 58, 60)   DRY( 58, 61)   DRY( 58, 62)   DRY( 58, 63)   DRY( 58, 64)   
    DRY( 58, 65)   DRY( 58, 66)   DRY( 58, 67)   DRY( 58, 68)   DRY( 58, 69)   
    DRY( 58, 70)   DRY( 58, 71)   DRY( 58, 72)   DRY( 58, 73)   DRY( 58, 74)   
    DRY( 58, 75)   DRY( 58, 76)   DRY( 58, 77)   DRY( 58, 78)   DRY( 58, 79)   
    DRY( 58, 80)   DRY( 58, 81)   DRY( 58, 82)   DRY( 58, 83)   DRY( 58, 84)   
    DRY( 58, 85)   DRY( 58, 86)   DRY( 58, 87)   DRY( 58, 88)   DRY( 58, 89)   
    DRY( 58, 90)   DRY( 58, 91)   DRY( 58, 92)   DRY( 58, 93)   DRY( 58, 94)   
    DRY( 58, 95)   DRY( 58, 96)   DRY( 58, 97)   DRY( 58, 98)   DRY( 58, 99)   
    DRY( 58,100)   DRY( 58,101)   DRY( 58,102)   DRY( 58,103)   DRY( 58,104)   
    DRY( 58,105)   DRY( 58,106)   DRY( 58,107)   DRY( 58,108)   DRY( 58,109)   
    DRY( 58,110)   DRY( 58,111)   DRY( 58,112)   DRY( 58,113)   DRY( 58,114)   
    DRY( 58,115)   DRY( 58,116)   DRY( 58,117)   DRY( 58,118)   DRY( 58,119)   
    DRY( 58,120)   DRY( 58,121)   DRY( 58,122)   DRY( 58,123)   DRY( 58,124)   
    DRY( 58,125)   DRY( 58,126)   DRY( 58,127)   DRY( 58,128)   DRY( 58,129)   
    DRY( 58,130)   DRY( 58,131)   DRY( 58,132)   DRY( 58,133)   DRY( 58,134)   
    DRY( 58,135)   DRY( 58,136)   DRY( 58,137)   DRY( 58,138)   DRY( 58,139)   
    DRY( 58,140)   DRY( 58,141)   DRY( 58,142)   DRY( 58,143)   DRY( 58,144)   
    DRY( 58,145)   DRY( 58,146)   DRY( 58,147)   DRY( 58,148)   DRY( 58,149)   
    DRY( 58,150)   DRY( 58,151)   DRY( 58,152)   DRY( 58,153)   DRY( 58,154)   
    DRY( 58,155)   DRY( 58,156)   DRY( 58,157)   DRY( 58,158)   DRY( 58,159)   
    DRY( 58,160)   DRY( 58,161)   DRY( 58,162)   DRY( 58,163)   DRY( 58,164)   
    DRY( 58,165)   DRY( 58,166)   DRY( 58,167)   DRY( 58,168)   DRY( 58,169)   
    DRY( 58,170)   DRY( 58,171)   DRY( 58,172)   DRY( 58,173)   DRY( 58,174)   
    DRY( 58,175)   DRY( 58,176)   DRY( 58,177)   DRY( 58,178)   DRY( 58,179)   
    DRY( 58,180)   DRY( 58,181)   DRY( 58,182)   DRY( 58,183)   DRY( 58,184)   
    DRY( 58,185)   DRY( 58,186)   DRY( 58,187)   DRY( 58,188)   DRY( 58,189)   
    DRY( 58,190)   DRY( 58,191)   DRY( 58,192)   DRY( 58,193)   DRY( 58,194)   
    DRY( 58,195)   DRY( 58,196)   DRY( 58,197)   DRY( 58,198)   DRY( 58,199)   
    DRY( 58,200)   DRY( 58,201)   DRY( 58,202)   DRY( 58,203)   DRY( 58,204)   
    DRY( 58,205)   DRY( 58,206)   DRY( 58,207)   DRY( 58,208)   DRY( 58,209)   
    DRY( 58,210)   DRY( 58,211)   DRY( 58,212)   DRY( 58,213)   DRY( 58,214)   
    DRY( 58,215)   DRY( 58,216)   DRY( 58,217)   DRY( 58,218)   DRY( 58,219)   
    DRY( 58,220)   DRY( 59,  1)   DRY( 59,  2)   DRY( 59,  3)   DRY( 59,  4)   
    DRY( 59,  5)   DRY( 59,  6)   DRY( 59,  7)   DRY( 59,  8)   DRY( 59,  9)   
    DRY( 59, 10)   DRY( 59, 11)   DRY( 59, 12)   DRY( 59, 13)   DRY( 59, 14)   
    DRY( 59, 15)   DRY( 59, 16)   DRY( 59, 17)   DRY( 59, 18)   DRY( 59, 19)   
    DRY( 59, 20)   DRY( 59, 21)   DRY( 59, 22)   DRY( 59, 23)   DRY( 59, 24)   
    DRY( 59, 25)   DRY( 59, 26)   DRY( 59, 27)   DRY( 59, 28)   DRY( 59, 29)   
    DRY( 59, 30)   DRY( 59, 31)   DRY( 59, 32)   DRY( 59, 33)   DRY( 59, 34)   
    DRY( 59, 35)   DRY( 59, 36)   DRY( 59, 37)   DRY( 59, 38)   DRY( 59, 39)   
    DRY( 59, 40)   DRY( 59, 41)   DRY( 59, 42)   DRY( 59, 43)   DRY( 59, 44)   
    DRY( 59, 45)   DRY( 59, 46)   DRY( 59, 47)   DRY( 59, 48)   DRY( 59, 49)   
    DRY( 59, 50)   DRY( 59, 51)   DRY( 59, 52)   DRY( 59, 53)   DRY( 59, 54)   
    DRY( 59, 55)   DRY( 59, 56)   DRY( 59, 57)   DRY( 59, 58)   DRY( 59, 59)   
    DRY( 59, 60)   DRY( 59, 61)   DRY( 59, 62)   DRY( 59, 63)   DRY( 59, 64)   
    DRY( 59, 65)   DRY( 59, 66)   DRY( 59, 67)   DRY( 59, 68)   DRY( 59, 69)   
    DRY( 59, 70)   DRY( 59, 71)   DRY( 59, 72)   DRY( 59, 73)   DRY( 59, 74)   
    DRY( 59, 75)   DRY( 59, 76)   DRY( 59, 77)   DRY( 59, 78)   DRY( 59, 79)   
    DRY( 59, 80)   DRY( 59, 81)   DRY( 59, 82)   DRY( 59, 83)   DRY( 59, 84)   
    DRY( 59, 85)   DRY( 59, 86)   DRY( 59, 87)   DRY( 59, 88)   DRY( 59, 89)   
    DRY( 59, 90)   DRY( 59, 91)   DRY( 59, 92)   DRY( 59, 93)   DRY( 59, 94)   
    DRY( 59, 95)   DRY( 59, 96)   DRY( 59, 97)   DRY( 59, 98)   DRY( 59, 99)   
    DRY( 59,100)   DRY( 59,101)   DRY( 59,102)   DRY( 59,103)   DRY( 59,104)   
    DRY( 59,105)   DRY( 59,106)   DRY( 59,107)   DRY( 59,108)   DRY( 59,109)   
    DRY( 59,110)   DRY( 59,111)   DRY( 59,112)   DRY( 59,113)   DRY( 59,114)   
    DRY( 59,115)   DRY( 59,116)   DRY( 59,117)   DRY( 59,118)   DRY( 59,119)   
    DRY( 59,120)   DRY( 59,121)   DRY( 59,122)   DRY( 59,123)   DRY( 59,124)   
    DRY( 59,125)   DRY( 59,126)   DRY( 59,127)   DRY( 59,128)   DRY( 59,129)   
    DRY( 59,130)   DRY( 59,131)   DRY( 59,132)   DRY( 59,133)   DRY( 59,134)   
    DRY( 59,135)   DRY( 59,136)   DRY( 59,137)   DRY( 59,138)   DRY( 59,139)   
    DRY( 59,140)   DRY( 59,141)   DRY( 59,142)   DRY( 59,143)   DRY( 59,144)   
    DRY( 59,145)   DRY( 59,146)   DRY( 59,147)   DRY( 59,148)   DRY( 59,149)   
    DRY( 59,150)   DRY( 59,151)   DRY( 59,152)   DRY( 59,153)   DRY( 59,154)   
    DRY( 59,155)   DRY( 59,156)   DRY( 59,157)   DRY( 59,158)   DRY( 59,159)   
    DRY( 59,160)   DRY( 59,161)   DRY( 59,162)   DRY( 59,163)   DRY( 59,164)   
    DRY( 59,165)   DRY( 59,166)   DRY( 59,167)   DRY( 59,168)   DRY( 59,169)   
    DRY( 59,170)   DRY( 59,171)   DRY( 59,172)   DRY( 59,173)   DRY( 59,174)   
    DRY( 59,175)   DRY( 59,176)   DRY( 59,177)   DRY( 59,178)   DRY( 59,179)   
    DRY( 59,180)   DRY( 59,181)   DRY( 59,182)   DRY( 59,183)   DRY( 59,184)   
    DRY( 59,185)   DRY( 59,186)   DRY( 59,187)   DRY( 59,188)   DRY( 59,189)   
    DRY( 59,190)   DRY( 59,191)   DRY( 59,192)   DRY( 59,193)   DRY( 59,194)   
    DRY( 59,195)   DRY( 59,196)   DRY( 59,197)   DRY( 59,198)   DRY( 59,199)   
    DRY( 59,200)   DRY( 59,201)   DRY( 59,202)   DRY( 59,203)   DRY( 59,204)   
    DRY( 59,205)   DRY( 59,206)   DRY( 59,207)   DRY( 59,208)   DRY( 59,209)   
    DRY( 59,210)   DRY( 59,211)   DRY( 59,212)   DRY( 59,213)   DRY( 59,214)   
    DRY( 59,215)   DRY( 59,216)   DRY( 59,217)   DRY( 59,218)   DRY( 59,219)   
    DRY( 59,220)   DRY( 60,  1)   DRY( 60,  2)   DRY( 60,  3)   DRY( 60,  4)   
    DRY( 60,  5)   DRY( 60,  6)   DRY( 60,  7)   DRY( 60,  8)   DRY( 60,  9)   
    DRY( 60, 10)   DRY( 60, 11)   DRY( 60, 12)   DRY( 60, 13)   DRY( 60, 14)   
    DRY( 60, 15)   DRY( 60, 16)   DRY( 60, 17)   DRY( 60, 18)   DRY( 60, 19)   
    DRY( 60, 20)   DRY( 60, 37)   DRY( 60, 38)   DRY( 60, 39)   DRY( 60, 40)   
    DRY( 60, 41)   DRY( 60, 42)   DRY( 60, 43)   DRY( 60, 44)   DRY( 60, 45)   
    DRY( 60, 46)   DRY( 60, 47)   DRY( 60, 48)   DRY( 60, 49)   DRY( 60, 50)   
    DRY( 60, 51)   DRY( 60, 52)   DRY( 60, 53)   DRY( 60, 54)   DRY( 60, 55)   
    DRY( 60, 56)   DRY( 60, 57)   DRY( 60, 58)   DRY( 60, 59)   DRY( 60, 60)   
    DRY( 60, 61)   DRY( 60, 62)   DRY( 60, 63)   DRY( 60, 64)   DRY( 60, 65)   
    DRY( 60, 66)   DRY( 60, 67)   DRY( 60, 68)   DRY( 60, 69)   DRY( 60, 70)   
    DRY( 60, 71)   DRY( 60, 72)   DRY( 60, 73)   DRY( 60, 74)   DRY( 60, 75)   
    DRY( 60, 76)   DRY( 60, 77)   DRY( 60, 78)   DRY( 60, 79)   DRY( 60, 80)   
    DRY( 60, 81)   DRY( 60, 82)   DRY( 60, 83)   DRY( 60, 84)   DRY( 60, 85)   
    DRY( 60, 86)   DRY( 60, 87)   DRY( 60, 88)   DRY( 60, 89)   DRY( 60, 90)   
    DRY( 60, 91)   DRY( 60, 92)   DRY( 60, 93)   DRY( 60, 94)   DRY( 60, 95)   
    DRY( 60, 96)   DRY( 60, 97)   DRY( 60, 98)   DRY( 60, 99)   DRY( 60,100)   
    DRY( 60,101)   DRY( 60,102)   DRY( 60,103)   DRY( 60,104)   DRY( 60,105)   
    DRY( 60,106)   DRY( 60,107)   DRY( 60,108)   DRY( 60,109)   DRY( 60,110)   
    DRY( 60,111)   DRY( 60,112)   DRY( 60,113)   DRY( 60,114)   DRY( 60,115)   
    DRY( 60,116)   DRY( 60,117)   DRY( 60,118)   DRY( 60,119)   DRY( 60,120)   
    DRY( 60,121)   DRY( 60,122)   DRY( 60,123)   DRY( 60,124)   DRY( 60,125)   
    DRY( 60,126)   DRY( 60,127)   DRY( 60,128)   DRY( 60,129)   DRY( 60,130)   
    DRY( 60,131)   DRY( 60,132)   DRY( 60,133)   DRY( 60,134)   DRY( 60,135)   
    DRY( 60,136)   DRY( 60,137)   DRY( 60,138)   DRY( 60,139)   DRY( 60,140)   
    DRY( 60,141)   DRY( 60,142)   DRY( 60,143)   DRY( 60,144)   DRY( 60,145)   
    DRY( 60,146)   DRY( 60,147)   DRY( 60,148)   DRY( 60,149)   DRY( 60,150)   
    DRY( 60,151)   DRY( 60,152)   DRY( 60,153)   DRY( 60,154)   DRY( 60,155)   
    DRY( 60,156)   DRY( 60,157)   DRY( 60,158)   DRY( 60,159)   DRY( 60,160)   
    DRY( 60,161)   DRY( 60,162)   DRY( 60,163)   DRY( 60,164)   DRY( 60,165)   
    DRY( 60,166)   DRY( 60,167)   DRY( 60,168)   DRY( 60,169)   DRY( 60,170)   
    DRY( 60,171)   DRY( 60,172)   DRY( 60,173)   DRY( 60,174)   DRY( 60,175)   
    DRY( 60,176)   DRY( 60,177)   DRY( 60,178)   DRY( 60,179)   DRY( 60,180)   
    DRY( 60,181)   DRY( 60,182)   DRY( 60,183)   DRY( 60,184)   DRY( 60,185)   
    DRY( 60,186)   DRY( 60,187)   DRY( 60,188)   DRY( 60,189)   DRY( 60,190)   
    DRY( 60,191)   DRY( 60,192)   DRY( 60,193)   DRY( 60,194)   DRY( 60,195)   
    DRY( 60,196)   DRY( 60,197)   DRY( 60,198)   DRY( 60,199)   DRY( 60,200)   
    DRY( 60,201)   DRY( 60,202)   DRY( 60,203)   DRY( 60,204)   DRY( 60,205)   
    DRY( 60,206)   DRY( 60,207)   DRY( 60,208)   DRY( 60,209)   DRY( 60,210)   
    DRY( 60,211)   DRY( 60,212)   DRY( 60,213)   DRY( 60,214)   DRY( 60,215)   
    DRY( 60,216)   DRY( 60,217)   DRY( 60,218)   DRY( 60,219)   DRY( 60,220)   
    DRY( 61, 84)   DRY( 61, 85)   DRY( 61, 86)   DRY( 61, 87)   DRY( 61, 88)   
    DRY( 61, 89)   DRY( 61, 90)   DRY( 61, 91)   DRY( 61, 92)   DRY( 61, 93)   
    DRY( 61, 94)   DRY( 61, 95)   DRY( 61, 96)   DRY( 61, 97)   DRY( 61, 98)   
    DRY( 61, 99)   DRY( 61,100)   DRY( 61,101)   DRY( 61,102)   DRY( 61,103)   
    DRY( 61,104)   DRY( 61,105)   DRY( 61,106)   DRY( 61,107)   DRY( 61,108)   
    DRY( 61,109)   DRY( 61,110)   DRY( 61,111)   DRY( 61,112)   DRY( 61,113)   
    DRY( 61,114)   DRY( 61,115)   DRY( 61,116)   DRY( 61,117)   DRY( 61,118)   
    DRY( 61,119)   DRY( 61,120)   DRY( 61,121)   DRY( 61,122)   DRY( 61,123)   
    DRY( 61,124)   DRY( 61,125)   DRY( 61,126)   DRY( 61,127)   DRY( 61,128)   
    DRY( 61,129)   DRY( 61,130)   DRY( 61,131)   DRY( 61,132)   DRY( 61,133)   
    DRY( 61,134)   DRY( 61,135)   DRY( 61,136)   DRY( 61,137)   DRY( 61,138)   
    DRY( 61,139)   DRY( 61,140)   DRY( 61,141)   DRY( 61,142)   DRY( 61,143)   
    DRY( 61,144)   DRY( 61,145)   DRY( 61,146)   DRY( 61,147)   DRY( 61,148)   
    DRY( 61,149)   DRY( 61,150)   DRY( 61,151)   DRY( 61,152)   DRY( 61,153)   
    DRY( 61,154)   DRY( 61,155)   DRY( 61,156)   DRY( 61,157)   DRY( 61,158)   
    DRY( 61,159)   DRY( 61,160)   DRY( 61,161)   DRY( 61,162)   DRY( 61,163)   
    DRY( 61,164)   DRY( 61,165)   DRY( 61,166)   DRY( 61,167)   DRY( 61,168)   
    DRY( 61,169)   DRY( 61,170)   DRY( 61,171)   DRY( 61,172)   DRY( 61,173)   
    DRY( 61,174)   DRY( 61,175)   DRY( 61,176)   DRY( 61,177)   DRY( 61,178)   
    DRY( 61,179)   DRY( 61,180)   DRY( 61,181)   DRY( 61,182)   DRY( 61,183)   
    DRY( 61,184)   DRY( 61,185)   DRY( 61,186)   DRY( 61,187)   DRY( 61,188)   
    DRY( 61,189)   DRY( 61,190)   DRY( 61,191)   DRY( 61,192)   DRY( 61,193)   
    DRY( 61,194)   DRY( 61,195)   DRY( 61,196)   DRY( 61,197)   DRY( 61,198)   
    DRY( 61,199)   DRY( 61,200)   DRY( 61,201)   DRY( 61,202)   DRY( 61,203)   
    DRY( 61,204)   DRY( 61,205)   DRY( 61,206)   DRY( 61,207)   DRY( 61,208)   
    DRY( 61,209)   DRY( 61,210)   DRY( 61,211)   DRY( 61,212)   DRY( 61,213)   
    DRY( 61,214)   DRY( 61,215)   DRY( 61,216)   DRY( 61,217)   DRY( 61,218)   
    DRY( 61,219)   DRY( 61,220)   DRY( 62,129)   DRY( 62,130)   DRY( 62,131)   
    DRY( 62,132)   DRY( 62,133)   DRY( 62,134)   DRY( 62,135)   DRY( 62,136)   
    DRY( 62,137)   DRY( 62,138)   DRY( 62,139)   DRY( 62,140)   DRY( 62,141)   
    DRY( 62,142)   DRY( 62,143)   DRY( 62,144)   DRY( 62,145)   DRY( 62,146)   
    DRY( 62,147)   DRY( 62,148)   DRY( 62,149)   DRY( 62,150)   DRY( 62,151)   
    DRY( 62,152)   DRY( 62,153)   DRY( 62,154)   DRY( 62,155)   DRY( 62,156)   
    DRY( 62,157)   DRY( 62,158)   DRY( 62,159)   DRY( 62,160)   DRY( 62,161)   
    DRY( 62,162)   DRY( 62,163)   DRY( 62,164)   DRY( 62,165)   DRY( 62,166)   
    DRY( 62,167)   DRY( 62,168)   DRY( 62,169)   DRY( 62,170)   DRY( 62,171)   
    DRY( 62,172)   DRY( 62,173)   DRY( 62,174)   DRY( 62,175)   DRY( 62,176)   
    DRY( 62,177)   DRY( 62,178)   DRY( 62,179)   DRY( 62,180)   DRY( 62,181)   
    DRY( 62,182)   DRY( 62,183)   DRY( 62,184)   DRY( 62,185)   DRY( 62,186)   
    DRY( 62,187)   DRY( 62,188)   DRY( 62,189)   DRY( 62,190)   DRY( 62,191)   
    DRY( 62,192)   DRY( 62,193)   DRY( 62,194)   DRY( 62,195)   DRY( 62,196)   
    DRY( 62,197)   DRY( 62,198)   DRY( 62,199)   DRY( 62,200)   DRY( 62,201)   
    DRY( 62,202)   DRY( 62,203)   DRY( 62,204)   DRY( 62,205)   DRY( 62,206)   
    DRY( 62,207)   DRY( 62,208)   DRY( 62,209)   DRY( 62,210)   DRY( 62,211)   
    DRY( 62,212)   DRY( 62,213)   DRY( 62,214)   DRY( 62,215)   DRY( 62,216)   
    DRY( 62,217)   DRY( 62,218)   DRY( 62,219)   DRY( 62,220)   DRY( 63,191)   
    DRY( 63,192)   DRY( 63,193)   DRY( 63,194)   DRY( 63,195)   DRY( 63,196)   
    DRY( 63,197)   DRY( 63,198)   DRY( 63,199)   DRY( 63,200)   DRY( 63,201)   
    DRY( 63,202)   DRY( 63,203)   DRY( 63,204)   DRY( 63,205)   DRY( 63,206)   
    DRY( 63,207)   DRY( 63,208)   DRY( 63,209)   DRY( 63,210)   DRY( 63,211)   
    DRY( 63,212)   DRY( 63,213)   DRY( 63,214)   DRY( 63,215)   DRY( 63,216)   
    DRY( 63,217)   DRY( 63,218)   DRY( 63,219)   DRY( 63,220)   DRY( 64,220)   

 CELL CONVERSIONS FOR ITER.=  4  LAYER= 23  STEP=  1  PERIOD=   1   (ROW,COL)
    DRY( 57,  1)   DRY( 57,  2)   DRY( 57,  3)   DRY( 57,  4)   DRY( 57,  5)   
    DRY( 57,  6)   DRY( 57,  7)   DRY( 57,  8)   DRY( 57,  9)   DRY( 57, 10)   
    DRY( 57, 11)   DRY( 57, 12)   DRY( 57, 13)   DRY( 57, 14)   DRY( 57, 15)   
    DRY( 57, 16)   DRY( 57, 17)   DRY( 57, 18)   DRY( 57, 19)   DRY( 57, 20)   
    DRY( 57, 21)   DRY( 57, 22)   DRY( 57, 23)   DRY( 57, 24)   DRY( 57, 25)   
    DRY( 57, 26)   DRY( 57, 27)   DRY( 57, 28)   DRY( 57, 29)   DRY( 57, 30)   
    DRY( 57, 31)   DRY( 57, 32)   DRY( 57, 33)   DRY( 57, 34)   DRY( 57, 35)   
    DRY( 57, 36)   DRY( 57, 37)   DRY( 57, 38)   DRY( 57, 39)   DRY( 57, 40)   
    DRY( 57, 41)   DRY( 57, 42)   DRY( 57, 43)   DRY( 57, 44)   DRY( 57, 45)   
    DRY( 57, 46)   DRY( 57, 47)   DRY( 57, 48)   DRY( 57, 49)   DRY( 57, 50)   
    DRY( 57, 51)   DRY( 57, 52)   DRY( 57, 53)   DRY( 57, 54)   DRY( 57, 55)   
    DRY( 57, 56)   DRY( 57, 57)   DRY( 57, 58)   DRY( 57, 59)   DRY( 57, 60)   
    DRY( 57, 61)   DRY( 57, 62)   DRY( 57, 63)   DRY( 57, 64)   DRY( 57, 65)   
    DRY( 57, 66)   DRY( 57, 67)   DRY( 57, 68)   DRY( 57, 69)   DRY( 57, 70)   
    DRY( 57, 71)   DRY( 57, 72)   DRY( 57, 73)   DRY( 57, 74)   DRY( 57, 75)   
    DRY( 57, 76)   DRY( 57, 77)   DRY( 57, 78)   DRY( 57, 79)   DRY( 57, 80)   
    DRY( 57, 81)   DRY( 57, 82)   DRY( 57, 83)   DRY( 57, 84)   DRY( 57, 85)   
    DRY( 57, 86)   DRY( 57, 87)   DRY( 57, 88)   DRY( 57, 89)   DRY( 57, 90)   
    DRY( 57, 91)   DRY( 57, 92)   DRY( 57, 93)   DRY( 57, 94)   DRY( 57, 95)   
    DRY( 57, 96)   DRY( 57, 97)   DRY( 57, 98)   DRY( 57, 99)   DRY( 57,100)   
    DRY( 57,101)   DRY( 57,102)   DRY( 57,103)   DRY( 57,104)   DRY( 57,105)   
    DRY( 57,106)   DRY( 57,107)   DRY( 57,108)   DRY( 57,109)   DRY( 57,110)   
    DRY( 57,111)   DRY( 57,112)   DRY( 57,113)   DRY( 57,114)   DRY( 57,115)   
    DRY( 57,116)   DRY( 57,117)   DRY( 57,118)   DRY( 57,119)   DRY( 57,120)   
    DRY( 57,121)   DRY( 57,122)   DRY( 57,123)   DRY( 57,124)   DRY( 57,125)   
    DRY( 57,126)   DRY( 57,127)   DRY( 57,128)   DRY( 57,129)   DRY( 57,130)   
    DRY( 57,131)   DRY( 57,132)   DRY( 57,133)   DRY( 57,134)   DRY( 57,135)   
    DRY( 57,136)   DRY( 57,137)   DRY( 57,138)   DRY( 57,139)   DRY( 57,140)   
    DRY( 57,141)   DRY( 57,142)   DRY( 57,143)   DRY( 57,144)   DRY( 57,145)   
    DRY( 57,146)   DRY( 57,147)   DRY( 57,148)   DRY( 57,149)   DRY( 57,150)   
    DRY( 57,151)   DRY( 57,152)   DRY( 57,153)   DRY( 57,154)   DRY( 57,155)   
    DRY( 57,156)   DRY( 57,157)   DRY( 57,158)   DRY( 57,159)   DRY( 57,160)   
    DRY( 57,161)   DRY( 57,162)   DRY( 57,163)   DRY( 57,164)   DRY( 57,165)   
    DRY( 57,166)   DRY( 57,167)   DRY( 57,168)   DRY( 57,169)   DRY( 57,170)   
    DRY( 57,171)   DRY( 57,172)   DRY( 57,173)   DRY( 57,174)   DRY( 57,175)   
    DRY( 57,176)   DRY( 57,177)   DRY( 57,178)   DRY( 57,179)   DRY( 57,180)   
    DRY( 57,181)   DRY( 57,182)   DRY( 57,183)   DRY( 57,184)   DRY( 57,185)   
    DRY( 57,186)   DRY( 57,187)   DRY( 57,188)   DRY( 57,189)   DRY( 57,190)   
    DRY( 57,191)   DRY( 57,192)   DRY( 57,193)   DRY( 57,194)   DRY( 57,195)   
    DRY( 57,196)   DRY( 57,197)   DRY( 57,198)   DRY( 57,199)   DRY( 57,200)   
    DRY( 57,201)   DRY( 57,202)   DRY( 57,203)   DRY( 57,204)   DRY( 57,205)   
    DRY( 57,206)   DRY( 57,207)   DRY( 57,208)   DRY( 57,209)   DRY( 57,210)   
    DRY( 57,211)   DRY( 57,212)   DRY( 57,213)   DRY( 57,214)   DRY( 57,215)   
    DRY( 57,216)   DRY( 57,217)   DRY( 57,218)   DRY( 57,219)   DRY( 57,220)   
    DRY( 58,  1)   DRY( 58,  2)   DRY( 58,  3)   DRY( 58,  4)   DRY( 58,  5)   
    DRY( 58,  6)   DRY( 58,  7)   DRY( 58,  8)   DRY( 58,  9)   DRY( 58, 10)   
    DRY( 58, 11)   DRY( 58, 12)   DRY( 58, 13)   DRY( 58, 14)   DRY( 58, 15)   
    DRY( 58, 16)   DRY( 58, 17)   DRY( 58, 18)   DRY( 58, 19)   DRY( 58, 20)   
    DRY( 58, 21)   DRY( 58, 22)   DRY( 58, 23)   DRY( 58, 24)   DRY( 58, 25)   
    DRY( 58, 26)   DRY( 58, 27)   DRY( 58, 28)   DRY( 58, 29)   DRY( 58, 30)   
    DRY( 58, 31)   DRY( 58, 32)   DRY( 58, 33)   DRY( 58, 34)   DRY( 58, 35)   
    DRY( 58, 36)   DRY( 58, 37)   DRY( 58, 38)   DRY( 58, 39)   DRY( 58, 40)   
    DRY( 58, 41)   DRY( 58, 42)   DRY( 58, 43)   DRY( 58, 44)   DRY( 58, 45)   
    DRY( 58, 46)   DRY( 58, 47)   DRY( 58, 48)   DRY( 58, 49)   DRY( 58, 50)   
    DRY( 58, 51)   DRY( 58, 52)   DRY( 58, 53)   DRY( 58, 54)   DRY( 58, 55)   
    DRY( 58, 56)   DRY( 58, 57)   DRY( 58, 58)   DRY( 58, 59)   DRY( 58, 60)   
    DRY( 58, 61)   DRY( 58, 62)   DRY( 58, 63)   DRY( 58, 64)   DRY( 58, 65)   
    DRY( 58, 66)   DRY( 58, 67)   DRY( 58, 68)   DRY( 58, 69)   DRY( 58, 70)   
    DRY( 58, 71)   DRY( 58, 72)   DRY( 58, 73)   DRY( 58, 74)   DRY( 58, 75)   
    DRY( 58, 76)   DRY( 58, 77)   DRY( 58, 78)   DRY( 58, 79)   DRY( 58, 80)   
    DRY( 58, 81)   DRY( 58, 82)   DRY( 58, 83)   DRY( 58, 84)   DRY( 58, 85)   
    DRY( 58, 86)   DRY( 58, 87)   DRY( 58, 88)   DRY( 58, 89)   DRY( 58, 90)   
    DRY( 58, 91)   DRY( 58, 92)   DRY( 58, 93)   DRY( 58, 94)   DRY( 58, 95)   
    DRY( 58, 96)   DRY( 58, 97)   DRY( 58, 98)   DRY( 58, 99)   DRY( 58,100)   
    DRY( 58,101)   DRY( 58,102)   DRY( 58,103)   DRY( 58,104)   DRY( 58,105)   
    DRY( 58,106)   DRY( 58,107)   DRY( 58,108)   DRY( 58,109)   DRY( 58,110)   
    DRY( 58,111)   DRY( 58,112)   DRY( 58,113)   DRY( 58,114)   DRY( 58,115)   
    DRY( 58,116)   DRY( 58,117)   DRY( 58,118)   DRY( 58,119)   DRY( 58,120)   
    DRY( 58,121)   DRY( 58,122)   DRY( 58,123)   DRY( 58,124)   DRY( 58,125)   
    DRY( 58,126)   DRY( 58,127)   DRY( 58,128)   DRY( 58,129)   DRY( 58,130)   
    DRY( 58,131)   DRY( 58,132)   DRY( 58,133)   DRY( 58,134)   DRY( 58,135)   
    DRY( 58,136)   DRY( 58,137)   DRY( 58,138)   DRY( 58,139)   DRY( 58,140)   
    DRY( 58,141)   DRY( 58,142)   DRY( 58,143)   DRY( 58,144)   DRY( 58,145)   
    DRY( 58,146)   DRY( 58,147)   DRY( 58,148)   DRY( 58,149)   DRY( 58,150)   
    DRY( 58,151)   DRY( 58,152)   DRY( 58,153)   DRY( 58,154)   DRY( 58,155)   
    DRY( 58,156)   DRY( 58,157)   DRY( 58,158)   DRY( 58,159)   DRY( 58,160)   
    DRY( 58,161)   DRY( 58,162)   DRY( 58,163)   DRY( 58,164)   DRY( 58,165)   
    DRY( 58,166)   DRY( 58,167)   DRY( 58,168)   DRY( 58,169)   DRY( 58,170)   
    DRY( 58,171)   DRY( 58,172)   DRY( 58,173)   DRY( 58,174)   DRY( 58,175)   
    DRY( 58,176)   DRY( 58,177)   DRY( 58,178)   DRY( 58,179)   DRY( 58,180)   
    DRY( 58,181)   DRY( 58,182)   DRY( 58,183)   DRY( 58,184)   DRY( 58,185)   
    DRY( 58,186)   DRY( 58,187)   DRY( 58,188)   DRY( 58,189)   DRY( 58,190)   
    DRY( 58,191)   DRY( 58,192)   DRY( 58,193)   DRY( 58,194)   DRY( 58,195)   
    DRY( 58,196)   DRY( 58,197)   DRY( 58,198)   DRY( 58,199)   DRY( 58,200)   
    DRY( 58,201)   DRY( 58,202)   DRY( 58,203)   DRY( 58,204)   DRY( 58,205)   
    DRY( 58,206)   DRY( 58,207)   DRY( 58,208)   DRY( 58,209)   DRY( 58,210)   
    DRY( 58,211)   DRY( 58,212)   DRY( 58,213)   DRY( 58,214)   DRY( 58,215)   
    DRY( 58,216)   DRY( 58,217)   DRY( 58,218)   DRY( 58,219)   DRY( 58,220)   
    DRY( 59,  1)   DRY( 59,  2)   DRY( 59,  3)   DRY( 59,  4)   DRY( 59,  5)   
    DRY( 59,  6)   DRY( 59,  7)   DRY( 59,  8)   DRY( 59,  9)   DRY( 59, 10)   
    DRY( 59, 11)   DRY( 59, 12)   DRY( 59, 13)   DRY( 59, 14)   DRY( 59, 15)   
    DRY( 59, 16)   DRY( 59, 17)   DRY( 59, 18)   DRY( 59, 19)   DRY( 59, 20)   
    DRY( 59, 21)   DRY( 59, 22)   DRY( 59, 23)   DRY( 59, 24)   DRY( 59, 25)   
    DRY( 59, 26)   DRY( 59, 27)   DRY( 59, 28)   DRY( 59, 29)   DRY( 59, 30)   
    DRY( 59, 31)   DRY( 59, 32)   DRY( 59, 33)   DRY( 59, 34)   DRY( 59, 35)   
    DRY( 59, 36)   DRY( 59, 37)   DRY( 59, 38)   DRY( 59, 39)   DRY( 59, 40)   
    DRY( 59, 41)   DRY( 59, 42)   DRY( 59, 43)   DRY( 59, 44)   DRY( 59, 45)   
    DRY( 59, 46)   DRY( 59, 47)   DRY( 59, 48)   DRY( 59, 49)   DRY( 59, 50)   
    DRY( 59, 51)   DRY( 59, 52)   DRY( 59, 53)   DRY( 59, 54)   DRY( 59, 55)   
    DRY( 59, 56)   DRY( 59, 57)   DRY( 59, 58)   DRY( 59, 59)   DRY( 59, 60)   
    DRY( 59, 61)   DRY( 59, 62)   DRY( 59, 63)   DRY( 59, 64)   DRY( 59, 65)   
    DRY( 59, 66)   DRY( 59, 67)   DRY( 59, 68)   DRY( 59, 69)   DRY( 59, 70)   
    DRY( 59, 71)   DRY( 59, 72)   DRY( 59, 73)   DRY( 59, 74)   DRY( 59, 75)   
    DRY( 59, 76)   DRY( 59, 77)   DRY( 59, 78)   DRY( 59, 79)   DRY( 59, 80)   
    DRY( 59, 81)   DRY( 59, 82)   DRY( 59, 83)   DRY( 59, 84)   DRY( 59, 85)   
    DRY( 59, 86)   DRY( 59, 87)   DRY( 59, 88)   DRY( 59, 89)   DRY( 59, 90)   
    DRY( 59, 91)   DRY( 59, 92)   DRY( 59, 93)   DRY( 59, 94)   DRY( 59, 95)   
    DRY( 59, 96)   DRY( 59, 97)   DRY( 59, 98)   DRY( 59, 99)   DRY( 59,100)   
    DRY( 59,101)   DRY( 59,102)   DRY( 59,103)   DRY( 59,104)   DRY( 59,105)   
    DRY( 59,106)   DRY( 59,107)   DRY( 59,108)   DRY( 59,109)   DRY( 59,110)   
    DRY( 59,111)   DRY( 59,112)   DRY( 59,113)   DRY( 59,114)   DRY( 59,115)   
    DRY( 59,116)   DRY( 59,117)   DRY( 59,118)   DRY( 59,119)   DRY( 59,120)   
    DRY( 59,121)   DRY( 59,122)   DRY( 59,123)   DRY( 59,124)   DRY( 59,125)   
    DRY( 59,126)   DRY( 59,127)   DRY( 59,128)   DRY( 59,129)   DRY( 59,130)   
    DRY( 59,131)   DRY( 59,132)   DRY( 59,133)   DRY( 59,134)   DRY( 59,135)   
    DRY( 59,136)   DRY( 59,137)   DRY( 59,138)   DRY( 59,139)   DRY( 59,140)   
    DRY( 59,141)   DRY( 59,142)   DRY( 59,143)   DRY( 59,144)   DRY( 59,145)   
    DRY( 59,146)   DRY( 59,147)   DRY( 59,148)   DRY( 59,149)   DRY( 59,150)   
    DRY( 59,151)   DRY( 59,152)   DRY( 59,153)   DRY( 59,154)   DRY( 59,155)   
    DRY( 59,156)   DRY( 59,157)   DRY( 59,158)   DRY( 59,159)   DRY( 59,160)   
    DRY( 59,161)   DRY( 59,162)   DRY( 59,163)   DRY( 59,164)   DRY( 59,165)   
    DRY( 59,166)   DRY( 59,167)   DRY( 59,168)   DRY( 59,169)   DRY( 59,170)   
    DRY( 59,171)   DRY( 59,172)   DRY( 59,173)   DRY( 59,174)   DRY( 59,175)   
    DRY( 59,176)   DRY( 59,177)   DRY( 59,178)   DRY( 59,179)   DRY( 59,180)   
    DRY( 59,181)   DRY( 59,182)   DRY( 59,183)   DRY( 59,184)   DRY( 59,185)   
    DRY( 59,186)   DRY( 59,187)   DRY( 59,188)   DRY( 59,189)   DRY( 59,190)   
    DRY( 59,191)   DRY( 59,192)   DRY( 59,193)   DRY( 59,194)   DRY( 59,195)   
    DRY( 59,196)   DRY( 59,197)   DRY( 59,198)   DRY( 59,199)   DRY( 59,200)   
    DRY( 59,201)   DRY( 59,202)   DRY( 59,203)   DRY( 59,204)   DRY( 59,205)   
    DRY( 59,206)   DRY( 59,207)   DRY( 59,208)   DRY( 59,209)   DRY( 59,210)   
    DRY( 59,211)   DRY( 59,212)   DRY( 59,213)   DRY( 59,214)   DRY( 59,215)   
    DRY( 59,216)   DRY( 59,217)   DRY( 59,218)   DRY( 59,219)   DRY( 59,220)   
    DRY( 60,  1)   DRY( 60,  2)   DRY( 60,  3)   DRY( 60,  4)   DRY( 60,  5)   
    DRY( 60,  6)   DRY( 60,  7)   DRY( 60,  8)   DRY( 60,  9)   DRY( 60, 10)   
    DRY( 60, 11)   DRY( 60, 12)   DRY( 60, 13)   DRY( 60, 14)   DRY( 60, 15)   
    DRY( 60, 16)   DRY( 60, 17)   DRY( 60, 18)   DRY( 60, 19)   DRY( 60, 20)   
    DRY( 60, 21)   DRY( 60, 22)   DRY( 60, 23)   DRY( 60, 24)   DRY( 60, 25)   
    DRY( 60, 26)   DRY( 60, 27)   DRY( 60, 28)   DRY( 60, 29)   DRY( 60, 30)   
    DRY( 60, 31)   DRY( 60, 32)   DRY( 60, 33)   DRY( 60, 34)   DRY( 60, 35)   
    DRY( 60, 36)   DRY( 60, 37)   DRY( 60, 38)   DRY( 60, 39)   DRY( 60, 40)   
    DRY( 60, 41)   DRY( 60, 42)   DRY( 60, 43)   DRY( 60, 44)   DRY( 60, 45)   
    DRY( 60, 46)   DRY( 60, 47)   DRY( 60, 48)   DRY( 60, 49)   DRY( 60, 50)   
    DRY( 60, 51)   DRY( 60, 52)   DRY( 60, 53)   DRY( 60, 54)   DRY( 60, 55)   
    DRY( 60, 56)   DRY( 60, 57)   DRY( 60, 58)   DRY( 60, 59)   DRY( 60, 60)   
    DRY( 60, 61)   DRY( 60, 62)   DRY( 60, 63)   DRY( 60, 64)   DRY( 60, 65)   
    DRY( 60, 66)   DRY( 60, 67)   DRY( 60, 68)   DRY( 60, 69)   DRY( 60, 70)   
    DRY( 60, 71)   DRY( 60, 72)   DRY( 60, 73)   DRY( 60, 74)   DRY( 60, 75)   
    DRY( 60, 76)   DRY( 60, 77)   DRY( 60, 78)   DRY( 60, 79)   DRY( 60, 80)   
    DRY( 60, 81)   DRY( 60, 82)   DRY( 60, 83)   DRY( 60, 84)   DRY( 60, 85)   
    DRY( 60, 86)   DRY( 60, 87)   DRY( 60, 88)   DRY( 60, 89)   DRY( 60, 90)   
    DRY( 60, 91)   DRY( 60, 92)   DRY( 60, 93)   DRY( 60, 94)   DRY( 60, 95)   
    DRY( 60, 96)   DRY( 60, 97)   DRY( 60, 98)   DRY( 60, 99)   DRY( 60,100)   
    DRY( 60,101)   DRY( 60,102)   DRY( 60,103)   DRY( 60,104)   DRY( 60,105)   
    DRY( 60,106)   DRY( 60,107)   DRY( 60,108)   DRY( 60,109)   DRY( 60,110)   
    DRY( 60,111)   DRY( 60,112)   DRY( 60,113)   DRY( 60,114)   DRY( 60,115)   
    DRY( 60,116)   DRY( 60,117)   DRY( 60,118)   DRY( 60,119)   DRY( 60,120)   
    DRY( 60,121)   DRY( 60,122)   DRY( 60,123)   DRY( 60,124)   DRY( 60,125)   
    DRY( 60,126)   DRY( 60,127)   DRY( 60,128)   DRY( 60,129)   DRY( 60,130)   
    DRY( 60,131)   DRY( 60,132)   DRY( 60,133)   DRY( 60,134)   DRY( 60,135)   
    DRY( 60,136)   DRY( 60,137)   DRY( 60,138)   DRY( 60,139)   DRY( 60,140)   
    DRY( 60,141)   DRY( 60,142)   DRY( 60,143)   DRY( 60,144)   DRY( 60,145)   
    DRY( 60,146)   DRY( 60,147)   DRY( 60,148)   DRY( 60,149)   DRY( 60,150)   
    DRY( 60,151)   DRY( 60,152)   DRY( 60,153)   DRY( 60,154)   DRY( 60,155)   
    DRY( 60,156)   DRY( 60,157)   DRY( 60,158)   DRY( 60,159)   DRY( 60,160)   
    DRY( 60,161)   DRY( 60,162)   DRY( 60,163)   DRY( 60,164)   DRY( 60,165)   
    DRY( 60,166)   DRY( 60,167)   DRY( 60,168)   DRY( 60,169)   DRY( 60,170)   
    DRY( 60,171)   DRY( 60,172)   DRY( 60,173)   DRY( 60,174)   DRY( 60,175)   
    DRY( 60,176)   DRY( 60,177)   DRY( 60,178)   DRY( 60,179)   DRY( 60,180)   
    DRY( 60,181)   DRY( 60,182)   DRY( 60,183)   DRY( 60,184)   DRY( 60,185)   
    DRY( 60,186)   DRY( 60,187)   DRY( 60,188)   DRY( 60,189)   DRY( 60,190)   
    DRY( 60,191)   DRY( 60,192)   DRY( 60,193)   DRY( 60,194)   DRY( 60,195)   
    DRY( 60,196)   DRY( 60,197)   DRY( 60,198)   DRY( 60,199)   DRY( 60,200)   
    DRY( 60,201)   DRY( 60,202)   DRY( 60,203)   DRY( 60,204)   DRY( 60,205)   
    DRY( 60,206)   DRY( 60,207)   DRY( 60,208)   DRY( 60,209)   DRY( 60,210)   
    DRY( 60,211)   DRY( 60,212)   DRY( 60,213)   DRY( 60,214)   DRY( 60,215)   
    DRY( 60,216)   DRY( 60,217)   DRY( 60,218)   DRY( 60,219)   DRY( 60,220)   
    DRY( 61,  1)   DRY( 61,  2)   DRY( 61,  3)   DRY( 61,  4)   DRY( 61,  5)   
    DRY( 61,  6)   DRY( 61,  7)   DRY( 61,  8)   DRY( 61,  9)   DRY( 61, 10)   
    DRY( 61, 11)   DRY( 61, 12)   DRY( 61, 13)   DRY( 61, 14)   DRY( 61, 15)   
    DRY( 61, 16)   DRY( 61, 17)   DRY( 61, 18)   DRY( 61, 19)   DRY( 61, 20)   
    DRY( 61, 21)   DRY( 61, 22)   DRY( 61, 23)   DRY( 61, 24)   DRY( 61, 25)   
    DRY( 61, 26)   DRY( 61, 27)   DRY( 61, 28)   DRY( 61, 29)   DRY( 61, 30)   
    DRY( 61, 31)   DRY( 61, 32)   DRY( 61, 33)   DRY( 61, 34)   DRY( 61, 35)   
    DRY( 61, 36)   DRY( 61, 37)   DRY( 61, 38)   DRY( 61, 39)   DRY( 61, 40)   
    DRY( 61, 41)   DRY( 61, 42)   DRY( 61, 43)   DRY( 61, 44)   DRY( 61, 45)   
    DRY( 61, 46)   DRY( 61, 47)   DRY( 61, 48)   DRY( 61, 49)   DRY( 61, 50)   
    DRY( 61, 51)   DRY( 61, 52)   DRY( 61, 53)   DRY( 61, 54)   DRY( 61, 55)   
    DRY( 61, 56)   DRY( 61, 57)   DRY( 61, 58)   DRY( 61, 59)   DRY( 61, 60)   
    DRY( 61, 61)   DRY( 61, 62)   DRY( 61, 63)   DRY( 61, 64)   DRY( 61, 65)   
    DRY( 61, 66)   DRY( 61, 67)   DRY( 61, 68)   DRY( 61, 69)   DRY( 61, 70)   
    DRY( 61, 71)   DRY( 61, 72)   DRY( 61, 73)   DRY( 61, 74)   DRY( 61, 75)   
    DRY( 61, 76)   DRY( 61, 77)   DRY( 61, 78)   DRY( 61, 79)   DRY( 61, 80)   
    DRY( 61, 81)   DRY( 61, 82)   DRY( 61, 83)   DRY( 61, 84)   DRY( 61, 85)   
    DRY( 61, 86)   DRY( 61, 87)   DRY( 61, 88)   DRY( 61, 89)   DRY( 61, 90)   
    DRY( 61, 91)   DRY( 61, 92)   DRY( 61, 93)   DRY( 61, 94)   DRY( 61, 95)   
    DRY( 61, 96)   DRY( 61, 97)   DRY( 61, 98)   DRY( 61, 99)   DRY( 61,100)   
    DRY( 61,101)   DRY( 61,102)   DRY( 61,103)   DRY( 61,104)   DRY( 61,105)   
    DRY( 61,106)   DRY( 61,107)   DRY( 61,108)   DRY( 61,109)   DRY( 61,110)   
    DRY( 61,111)   DRY( 61,112)   DRY( 61,113)   DRY( 61,114)   DRY( 61,115)   
    DRY( 61,116)   DRY( 61,117)   DRY( 61,118)   DRY( 61,119)   DRY( 61,120)   
    DRY( 61,121)   DRY( 61,122)   DRY( 61,123)   DRY( 61,124)   DRY( 61,125)   
    DRY( 61,126)   DRY( 61,127)   DRY( 61,128)   DRY( 61,129)   DRY( 61,130)   
    DRY( 61,131)   DRY( 61,132)   DRY( 61,133)   DRY( 61,134)   DRY( 61,135)   
    DRY( 61,136)   DRY( 61,137)   DRY( 61,138)   DRY( 61,139)   DRY( 61,140)   
    DRY( 61,141)   DRY( 61,142)   DRY( 61,143)   DRY( 61,144)   DRY( 61,145)   
    DRY( 61,146)   DRY( 61,147)   DRY( 61,148)   DRY( 61,149)   DRY( 61,150)   
    DRY( 61,151)   DRY( 61,152)   DRY( 61,153)   DRY( 61,154)   DRY( 61,155)   
    DRY( 61,156)   DRY( 61,157)   DRY( 61,158)   DRY( 61,159)   DRY( 61,160)   
    DRY( 61,161)   DRY( 61,162)   DRY( 61,163)   DRY( 61,164)   DRY( 61,165)   
    DRY( 61,166)   DRY( 61,167)   DRY( 61,168)   DRY( 61,169)   DRY( 61,170)   
    DRY( 61,171)   DRY( 61,172)   DRY( 61,173)   DRY( 61,174)   DRY( 61,175)   
    DRY( 61,176)   DRY( 61,177)   DRY( 61,178)   DRY( 61,179)   DRY( 61,180)   
    DRY( 61,181)   DRY( 61,182)   DRY( 61,183)   DRY( 61,184)   DRY( 61,185)   
    DRY( 61,186)   DRY( 61,187)   DRY( 61,188)   DRY( 61,189)   DRY( 61,190)   
    DRY( 61,191)   DRY( 61,192)   DRY( 61,193)   DRY( 61,194)   DRY( 61,195)   
    DRY( 61,196)   DRY( 61,197)   DRY( 61,198)   DRY( 61,199)   DRY( 61,200)   
    DRY( 61,201)   DRY( 61,202)   DRY( 61,203)   DRY( 61,204)   DRY( 61,205)   
    DRY( 61,206)   DRY( 61,207)   DRY( 61,208)   DRY( 61,209)   DRY( 61,210)   
    DRY( 61,211)   DRY( 61,212)   DRY( 61,213)   DRY( 61,214)   DRY( 61,215)   
    DRY( 61,216)   DRY( 61,217)   DRY( 61,218)   DRY( 61,219)   DRY( 61,220)   
    DRY( 62,  1)   DRY( 62,  2)   DRY( 62,  3)   DRY( 62,  4)   DRY( 62,  5)   
    DRY( 62,  6)   DRY( 62,  7)   DRY( 62,  8)   DRY( 62,  9)   DRY( 62, 10)   
    DRY( 62, 11)   DRY( 62, 12)   DRY( 62, 13)   DRY( 62, 14)   DRY( 62, 15)   
    DRY( 62, 16)   DRY( 62, 17)   DRY( 62, 18)   DRY( 62, 19)   DRY( 62, 20)   
    DRY( 62, 21)   DRY( 62, 22)   DRY( 62, 23)   DRY( 62, 24)   DRY( 62, 25)   
    DRY( 62, 26)   DRY( 62, 27)   DRY( 62, 28)   DRY( 62, 29)   DRY( 62, 30)   
    DRY( 62, 31)   DRY( 62, 32)   DRY( 62, 33)   DRY( 62, 34)   DRY( 62, 35)   
    DRY( 62, 36)   DRY( 62, 37)   DRY( 62, 38)   DRY( 62, 39)   DRY( 62, 40)   
    DRY( 62, 41)   DRY( 62, 42)   DRY( 62, 43)   DRY( 62, 44)   DRY( 62, 45)   
    DRY( 62, 46)   DRY( 62, 47)   DRY( 62, 48)   DRY( 62, 49)   DRY( 62, 50)   
    DRY( 62, 51)   DRY( 62, 52)   DRY( 62, 53)   DRY( 62, 54)   DRY( 62, 55)   
    DRY( 62, 56)   DRY( 62, 57)   DRY( 62, 58)   DRY( 62, 59)   DRY( 62, 60)   
    DRY( 62, 61)   DRY( 62, 62)   DRY( 62, 63)   DRY( 62, 64)   DRY( 62, 65)   
    DRY( 62, 66)   DRY( 62, 67)   DRY( 62, 68)   DRY( 62, 69)   DRY( 62, 70)   
    DRY( 62, 71)   DRY( 62, 72)   DRY( 62, 73)   DRY( 62, 74)   DRY( 62, 75)   
    DRY( 62, 76)   DRY( 62, 77)   DRY( 62, 78)   DRY( 62, 79)   DRY( 62, 80)   
    DRY( 62, 81)   DRY( 62, 82)   DRY( 62, 83)   DRY( 62, 84)   DRY( 62, 85)   
    DRY( 62, 86)   DRY( 62, 87)   DRY( 62, 88)   DRY( 62, 89)   DRY( 62, 90)   
    DRY( 62, 91)   DRY( 62, 92)   DRY( 62, 93)   DRY( 62, 94)   DRY( 62, 95)   
    DRY( 62, 96)   DRY( 62, 97)   DRY( 62, 98)   DRY( 62, 99)   DRY( 62,100)   
    DRY( 62,101)   DRY( 62,102)   DRY( 62,103)   DRY( 62,104)   DRY( 62,105)   
    DRY( 62,106)   DRY( 62,107)   DRY( 62,108)   DRY( 62,109)   DRY( 62,110)   
    DRY( 62,111)   DRY( 62,112)   DRY( 62,113)   DRY( 62,114)   DRY( 62,115)   
    DRY( 62,116)   DRY( 62,117)   DRY( 62,118)   DRY( 62,119)   DRY( 62,120)   
    DRY( 62,121)   DRY( 62,122)   DRY( 62,123)   DRY( 62,124)   DRY( 62,125)   
    DRY( 62,126)   DRY( 62,127)   DRY( 62,128)   DRY( 62,129)   DRY( 62,130)   
    DRY( 62,131)   DRY( 62,132)   DRY( 62,133)   DRY( 62,134)   DRY( 62,135)   
    DRY( 62,136)   DRY( 62,137)   DRY( 62,138)   DRY( 62,139)   DRY( 62,140)   
    DRY( 62,141)   DRY( 62,142)   DRY( 62,143)   DRY( 62,144)   DRY( 62,145)   
    DRY( 62,146)   DRY( 62,147)   DRY( 62,148)   DRY( 62,149)   DRY( 62,150)   
    DRY( 62,151)   DRY( 62,152)   DRY( 62,153)   DRY( 62,154)   DRY( 62,155)   
    DRY( 62,156)   DRY( 62,157)   DRY( 62,158)   DRY( 62,159)   DRY( 62,160)   
    DRY( 62,161)   DRY( 62,162)   DRY( 62,163)   DRY( 62,164)   DRY( 62,165)   
    DRY( 62,166)   DRY( 62,167)   DRY( 62,168)   DRY( 62,169)   DRY( 62,170)   
    DRY( 62,171)   DRY( 62,172)   DRY( 62,173)   DRY( 62,174)   DRY( 62,175)   
    DRY( 62,176)   DRY( 62,177)   DRY( 62,178)   DRY( 62,179)   DRY( 62,180)   
    DRY( 62,181)   DRY( 62,182)   DRY( 62,183)   DRY( 62,184)   DRY( 62,185)   
    DRY( 62,186)   DRY( 62,187)   DRY( 62,188)   DRY( 62,189)   DRY( 62,190)   
    DRY( 62,191)   DRY( 62,192)   DRY( 62,193)   DRY( 62,194)   DRY( 62,195)   
    DRY( 62,196)   DRY( 62,197)   DRY( 62,198)   DRY( 62,199)   DRY( 62,200)   
    DRY( 62,201)   DRY( 62,202)   DRY( 62,203)   DRY( 62,204)   DRY( 62,205)   
    DRY( 62,206)   DRY( 62,207)   DRY( 62,208)   DRY( 62,209)   DRY( 62,210)   
    DRY( 62,211)   DRY( 62,212)   DRY( 62,213)   DRY( 62,214)   DRY( 62,215)   
    DRY( 62,216)   DRY( 62,217)   DRY( 62,218)   DRY( 62,219)   DRY( 62,220)   
    DRY( 63,  1)   DRY( 63,  2)   DRY( 63,  3)   DRY( 63,  4)   DRY( 63,  5)   
    DRY( 63,  6)   DRY( 63,  7)   DRY( 63,  8)   DRY( 63,  9)   DRY( 63, 10)   
    DRY( 63, 11)   DRY( 63, 12)   DRY( 63, 13)   DRY( 63, 14)   DRY( 63, 15)   
    DRY( 63, 16)   DRY( 63, 17)   DRY( 63, 18)   DRY( 63, 19)   DRY( 63, 20)   
    DRY( 63, 21)   DRY( 63, 22)   DRY( 63, 23)   DRY( 63, 24)   DRY( 63, 25)   
    DRY( 63, 26)   DRY( 63, 27)   DRY( 63, 28)   DRY( 63, 29)   DRY( 63, 30)   
    DRY( 63, 31)   DRY( 63, 32)   DRY( 63, 33)   DRY( 63, 34)   DRY( 63, 35)   
    DRY( 63, 36)   DRY( 63, 37)   DRY( 63, 38)   DRY( 63, 39)   DRY( 63, 40)   
    DRY( 63, 41)   DRY( 63, 42)   DRY( 63, 43)   DRY( 63, 44)   DRY( 63, 45)   
    DRY( 63, 46)   DRY( 63, 47)   DRY( 63, 48)   DRY( 63, 49)   DRY( 63, 50)   
    DRY( 63, 51)   DRY( 63, 52)   DRY( 63, 53)   DRY( 63, 54)   DRY( 63, 55)   
    DRY( 63, 56)   DRY( 63, 57)   DRY( 63, 58)   DRY( 63, 59)   DRY( 63, 60)   
    DRY( 63, 61)   DRY( 63, 62)   DRY( 63, 63)   DRY( 63, 64)   DRY( 63, 65)   
    DRY( 63, 66)   DRY( 63, 67)   DRY( 63, 68)   DRY( 63, 69)   DRY( 63, 70)   
    DRY( 63, 71)   DRY( 63, 72)   DRY( 63, 73)   DRY( 63, 74)   DRY( 63, 75)   
    DRY( 63, 76)   DRY( 63, 77)   DRY( 63, 78)   DRY( 63, 79)   DRY( 63, 80)   
    DRY( 63, 81)   DRY( 63, 82)   DRY( 63, 83)   DRY( 63, 84)   DRY( 63, 85)   
    DRY( 63, 86)   DRY( 63, 87)   DRY( 63, 88)   DRY( 63, 89)   DRY( 63, 90)   
    DRY( 63, 91)   DRY( 63, 92)   DRY( 63, 93)   DRY( 63, 94)   DRY( 63, 95)   
    DRY( 63, 96)   DRY( 63, 97)   DRY( 63, 98)   DRY( 63, 99)   DRY( 63,100)   
    DRY( 63,101)   DRY( 63,102)   DRY( 63,103)   DRY( 63,104)   DRY( 63,105)   
    DRY( 63,106)   DRY( 63,107)   DRY( 63,108)   DRY( 63,109)   DRY( 63,110)   
    DRY( 63,111)   DRY( 63,112)   DRY( 63,113)   DRY( 63,114)   DRY( 63,115)   
    DRY( 63,116)   DRY( 63,117)   DRY( 63,118)   DRY( 63,119)   DRY( 63,120)   
    DRY( 63,121)   DRY( 63,122)   DRY( 63,123)   DRY( 63,124)   DRY( 63,125)   
    DRY( 63,126)   DRY( 63,127)   DRY( 63,128)   DRY( 63,129)   DRY( 63,130)   
    DRY( 63,131)   DRY( 63,132)   DRY( 63,133)   DRY( 63,134)   DRY( 63,135)   
    DRY( 63,136)   DRY( 63,137)   DRY( 63,138)   DRY( 63,139)   DRY( 63,140)   
    DRY( 63,141)   DRY( 63,142)   DRY( 63,143)   DRY( 63,144)   DRY( 63,145)   
    DRY( 63,146)   DRY( 63,147)   DRY( 63,148)   DRY( 63,149)   DRY( 63,150)   
    DRY( 63,151)   DRY( 63,152)   DRY( 63,153)   DRY( 63,154)   DRY( 63,155)   
    DRY( 63,156)   DRY( 63,157)   DRY( 63,158)   DRY( 63,159)   DRY( 63,160)   
    DRY( 63,161)   DRY( 63,162)   DRY( 63,163)   DRY( 63,164)   DRY( 63,165)   
    DRY( 63,166)   DRY( 63,167)   DRY( 63,168)   DRY( 63,169)   DRY( 63,170)   
    DRY( 63,171)   DRY( 63,172)   DRY( 63,173)   DRY( 63,174)   DRY( 63,175)   
    DRY( 63,176)   DRY( 63,177)   DRY( 63,178)   DRY( 63,179)   DRY( 63,180)   
    DRY( 63,181)   DRY( 63,182)   DRY( 63,183)   DRY( 63,184)   DRY( 63,185)   
    DRY( 63,186)   DRY( 63,187)   DRY( 63,188)   DRY( 63,189)   DRY( 63,190)   
    DRY( 63,191)   DRY( 63,192)   DRY( 63,193)   DRY( 63,194)   DRY( 63,195)   
    DRY( 63,196)   DRY( 63,197)   DRY( 63,198)   DRY( 63,199)   DRY( 63,200)   
    DRY( 63,201)   DRY( 63,202)   DRY( 63,203)   DRY( 63,204)   DRY( 63,205)   
    DRY( 63,206)   DRY( 63,207)   DRY( 63,208)   DRY( 63,209)   DRY( 63,210)   
    DRY( 63,211)   DRY( 63,212)   DRY( 63,213)   DRY( 63,214)   DRY( 63,215)   
    DRY( 63,216)   DRY( 63,217)   DRY( 63,218)   DRY( 63,219)   DRY( 63,220)   
    DRY( 64,  1)   DRY( 64,  2)   DRY( 64,  3)   DRY( 64,  4)   DRY( 64,  5)   
    DRY( 64,  6)   DRY( 64,  7)   DRY( 64,  8)   DRY( 64,  9)   DRY( 64, 10)   
    DRY( 64, 11)   DRY( 64, 12)   DRY( 64, 13)   DRY( 64, 14)   DRY( 64, 15)   
    DRY( 64, 16)   DRY( 64, 17)   DRY( 64, 18)   DRY( 64, 19)   DRY( 64, 20)   
    DRY( 64, 21)   DRY( 64, 22)   DRY( 64, 23)   DRY( 64, 24)   DRY( 64, 25)   
    DRY( 64, 26)   DRY( 64, 27)   DRY( 64, 28)   DRY( 64, 29)   DRY( 64, 30)   
    DRY( 64, 31)   DRY( 64, 32)   DRY( 64, 33)   DRY( 64, 34)   DRY( 64, 35)   
    DRY( 64, 36)   DRY( 64, 37)   DRY( 64, 38)   DRY( 64, 39)   DRY( 64, 40)   
    DRY( 64, 41)   DRY( 64, 42)   DRY( 64, 43)   DRY( 64, 44)   DRY( 64, 45)   
    DRY( 64, 46)   DRY( 64, 47)   DRY( 64, 48)   DRY( 64, 49)   DRY( 64, 50)   
    DRY( 64, 51)   DRY( 64, 52)   DRY( 64, 53)   DRY( 64, 54)   DRY( 64, 55)   
    DRY( 64, 56)   DRY( 64, 57)   DRY( 64, 58)   DRY( 64, 59)   DRY( 64, 60)   
    DRY( 64, 61)   DRY( 64, 62)   DRY( 64, 63)   DRY( 64, 64)   DRY( 64, 65)   
    DRY( 64, 66)   DRY( 64, 67)   DRY( 64, 68)   DRY( 64, 69)   DRY( 64, 70)   
    DRY( 64, 71)   DRY( 64, 72)   DRY( 64, 73)   DRY( 64, 74)   DRY( 64, 75)   
    DRY( 64, 76)   DRY( 64, 77)   DRY( 64, 78)   DRY( 64, 79)   DRY( 64, 80)   
    DRY( 64, 81)   DRY( 64, 82)   DRY( 64, 83)   DRY( 64, 84)   DRY( 64, 85)   
    DRY( 64, 86)   DRY( 64, 87)   DRY( 64, 88)   DRY( 64, 89)   DRY( 64, 90)   
    DRY( 64, 91)   DRY( 64, 92)   DRY( 64, 93)   DRY( 64, 94)   DRY( 64, 95)   
    DRY( 64, 96)   DRY( 64, 97)   DRY( 64, 98)   DRY( 64, 99)   DRY( 64,100)   
    DRY( 64,101)   DRY( 64,102)   DRY( 64,103)   DRY( 64,104)   DRY( 64,105)   
    DRY( 64,106)   DRY( 64,107)   DRY( 64,108)   DRY( 64,109)   DRY( 64,110)   
    DRY( 64,111)   DRY( 64,112)   DRY( 64,113)   DRY( 64,114)   DRY( 64,115)   
    DRY( 64,116)   DRY( 64,117)   DRY( 64,118)   DRY( 64,119)   DRY( 64,120)   
    DRY( 64,121)   DRY( 64,122)   DRY( 64,123)   DRY( 64,124)   DRY( 64,125)   
    DRY( 64,126)   DRY( 64,127)   DRY( 64,128)   DRY( 64,129)   DRY( 64,130)   
    DRY( 64,131)   DRY( 64,132)   DRY( 64,133)   DRY( 64,134)   DRY( 64,135)   
    DRY( 64,136)   DRY( 64,137)   DRY( 64,138)   DRY( 64,139)   DRY( 64,140)   
    DRY( 64,141)   DRY( 64,142)   DRY( 64,143)   DRY( 64,144)   DRY( 64,145)   
    DRY( 64,146)   DRY( 64,147)   DRY( 64,148)   DRY( 64,149)   DRY( 64,150)   
    DRY( 64,151)   DRY( 64,152)   DRY( 64,153)   DRY( 64,154)   DRY( 64,155)   
    DRY( 64,156)   DRY( 64,157)   DRY( 64,158)   DRY( 64,159)   DRY( 64,160)   
    DRY( 64,161)   DRY( 64,162)   DRY( 64,163)   DRY( 64,164)   DRY( 64,165)   
    DRY( 64,166)   DRY( 64,167)   DRY( 64,168)   DRY( 64,169)   DRY( 64,170)   
    DRY( 64,171)   DRY( 64,172)   DRY( 64,173)   DRY( 64,174)   DRY( 64,175)   
    DRY( 64,176)   DRY( 64,177)   DRY( 64,178)   DRY( 64,179)   DRY( 64,180)   
    DRY( 64,181)   DRY( 64,182)   DRY( 64,183)   DRY( 64,184)   DRY( 64,185)   
    DRY( 64,186)   DRY( 64,187)   DRY( 64,188)   DRY( 64,189)   DRY( 64,190)   
    DRY( 64,191)   DRY( 64,192)   DRY( 64,193)   DRY( 64,194)   DRY( 64,195)   
    DRY( 64,196)   DRY( 64,197)   DRY( 64,198)   DRY( 64,199)   DRY( 64,200)   
    DRY( 64,201)   DRY( 64,202)   DRY( 64,203)   DRY( 64,204)   DRY( 64,205)   
    DRY( 64,206)   DRY( 64,207)   DRY( 64,208)   DRY( 64,209)   DRY( 64,210)   
    DRY( 64,211)   DRY( 64,212)   DRY( 64,213)   DRY( 64,214)   DRY( 64,215)   
    DRY( 64,216)   DRY( 64,217)   DRY( 64,218)   DRY( 64,219)   DRY( 64,220)   
    DRY( 65,  1)   DRY( 65,  2)   DRY( 65,  3)   DRY( 65,  4)   DRY( 65,  5)   
    DRY( 65,  6)   DRY( 65,  7)   DRY( 65,  8)   DRY( 65,  9)   DRY( 65, 10)   
    DRY( 65, 11)   DRY( 65, 12)   DRY( 65, 13)   DRY( 65, 14)   DRY( 65, 15)   
    DRY( 65, 16)   DRY( 65, 17)   DRY( 65, 18)   DRY( 65, 19)   DRY( 65, 20)   
    DRY( 65, 21)   DRY( 65, 22)   DRY( 65, 23)   DRY( 65, 24)   DRY( 65, 25)   
    DRY( 65, 26)   DRY( 65, 27)   DRY( 65, 28)   DRY( 65, 29)   DRY( 65, 30)   
    DRY( 65, 31)   DRY( 65, 32)   DRY( 65, 33)   DRY( 65, 34)   DRY( 65, 35)   
    DRY( 65, 36)   DRY( 65, 37)   DRY( 65, 38)   DRY( 65, 39)   DRY( 65, 40)   
    DRY( 65, 41)   DRY( 65, 42)   DRY( 65, 43)   DRY( 65, 44)   DRY( 65, 45)   
    DRY( 65, 46)   DRY( 65, 47)   DRY( 65, 48)   DRY( 65, 49)   DRY( 65, 50)   
    DRY( 65, 51)   DRY( 65, 52)   DRY( 65, 53)   DRY( 65, 54)   DRY( 65, 55)   
    DRY( 65, 56)   DRY( 65, 57)   DRY( 65, 58)   DRY( 65, 59)   DRY( 65, 60)   
    DRY( 65, 61)   DRY( 65, 62)   DRY( 65, 63)   DRY( 65, 64)   DRY( 65, 65)   
    DRY( 65, 66)   DRY( 65, 67)   DRY( 65, 68)   DRY( 65, 69)   DRY( 65, 70)   
    DRY( 65, 71)   DRY( 65, 72)   DRY( 65, 73)   DRY( 65, 74)   DRY( 65, 75)   
    DRY( 65, 76)   DRY( 65, 77)   DRY( 65, 78)   DRY( 65, 79)   DRY( 65, 80)   
    DRY( 65, 81)   DRY( 65, 82)   DRY( 65, 83)   DRY( 65, 84)   DRY( 65, 85)   
    DRY( 65, 86)   DRY( 65, 87)   DRY( 65, 88)   DRY( 65, 89)   DRY( 65, 90)   
    DRY( 65, 91)   DRY( 65, 92)   DRY( 65, 93)   DRY( 65, 94)   DRY( 65, 95)   
    DRY( 65, 96)   DRY( 65, 97)   DRY( 65, 98)   DRY( 65, 99)   DRY( 65,100)   
    DRY( 65,101)   DRY( 65,102)   DRY( 65,103)   DRY( 65,104)   DRY( 65,105)   
    DRY( 65,106)   DRY( 65,107)   DRY( 65,108)   DRY( 65,109)   DRY( 65,110)   
    DRY( 65,111)   DRY( 65,112)   DRY( 65,113)   DRY( 65,114)   DRY( 65,115)   
    DRY( 65,116)   DRY( 65,117)   DRY( 65,118)   DRY( 65,119)   DRY( 65,120)   
    DRY( 65,121)   DRY( 65,122)   DRY( 65,123)   DRY( 65,124)   DRY( 65,125)   
    DRY( 65,126)   DRY( 65,127)   DRY( 65,128)   DRY( 65,129)   DRY( 65,130)   
    DRY( 65,131)   DRY( 65,132)   DRY( 65,133)   DRY( 65,134)   DRY( 65,135)   
    DRY( 65,136)   DRY( 65,137)   DRY( 65,138)   DRY( 65,139)   DRY( 65,140)   
    DRY( 65,141)   DRY( 65,142)   DRY( 65,143)   DRY( 65,144)   DRY( 65,145)   
    DRY( 65,146)   DRY( 65,147)   DRY( 65,148)   DRY( 65,149)   DRY( 65,150)   
    DRY( 65,151)   DRY( 65,152)   DRY( 65,153)   DRY( 65,154)   DRY( 65,155)   
    DRY( 65,156)   DRY( 65,157)   DRY( 65,158)   DRY( 65,159)   DRY( 65,160)   
    DRY( 65,161)   DRY( 65,162)   DRY( 65,163)   DRY( 65,164)   DRY( 65,165)   
    DRY( 65,166)   DRY( 65,167)   DRY( 65,168)   DRY( 65,169)   DRY( 65,170)   
    DRY( 65,171)   DRY( 65,172)   DRY( 65,173)   DRY( 65,174)   DRY( 65,175)   
    DRY( 65,176)   DRY( 65,177)   DRY( 65,178)   DRY( 65,179)   DRY( 65,180)   
    DRY( 65,181)   DRY( 65,182)   DRY( 65,183)   DRY( 65,184)   DRY( 65,185)   
    DRY( 65,186)   DRY( 65,187)   DRY( 65,188)   DRY( 65,189)   DRY( 65,190)   
    DRY( 65,191)   DRY( 65,192)   DRY( 65,193)   DRY( 65,194)   DRY( 65,195)   
    DRY( 65,196)   DRY( 65,197)   DRY( 65,198)   DRY( 65,199)   DRY( 65,200)   
    DRY( 65,201)   DRY( 65,202)   DRY( 65,203)   DRY( 65,204)   DRY( 65,205)   
    DRY( 65,206)   DRY( 65,207)   DRY( 65,208)   DRY( 65,209)   DRY( 65,210)   
    DRY( 65,211)   DRY( 65,212)   DRY( 65,213)   DRY( 65,214)   DRY( 65,215)   
    DRY( 65,216)   DRY( 65,217)   DRY( 65,218)   DRY( 65,219)   DRY( 65,220)   
    DRY( 66, 50)   DRY( 66, 51)   DRY( 66, 52)   DRY( 66, 53)   DRY( 66, 54)   
    DRY( 66, 55)   DRY( 66, 56)   DRY( 66, 57)   DRY( 66, 58)   DRY( 66, 59)   
    DRY( 66, 60)   DRY( 66, 61)   DRY( 66, 62)   DRY( 66, 63)   DRY( 66, 64)   
    DRY( 66, 65)   DRY( 66, 66)   DRY( 66, 67)   DRY( 66, 68)   DRY( 66, 69)   
    DRY( 66, 70)   DRY( 66, 71)   DRY( 66, 72)   DRY( 66, 73)   DRY( 66, 74)   
    DRY( 66, 75)   DRY( 66, 76)   DRY( 66, 77)   DRY( 66, 78)   DRY( 66, 79)   
    DRY( 66, 80)   DRY( 66, 81)   DRY( 66, 82)   DRY( 66, 83)   DRY( 66, 84)   
    DRY( 66, 85)   DRY( 66, 86)   DRY( 66, 87)   DRY( 66, 88)   DRY( 66, 89)   
    DRY( 66, 90)   DRY( 66, 91)   DRY( 66, 92)   DRY( 66, 93)   DRY( 66, 94)   
    DRY( 66, 95)   DRY( 66, 96)   DRY( 66, 97)   DRY( 66, 98)   DRY( 66, 99)   
    DRY( 66,100)   DRY( 66,101)   DRY( 66,102)   DRY( 66,103)   DRY( 66,104)   
    DRY( 66,105)   DRY( 66,106)   DRY( 66,107)   DRY( 66,108)   DRY( 66,109)   
    DRY( 66,110)   DRY( 66,111)   DRY( 66,112)   DRY( 66,113)   DRY( 66,114)   
    DRY( 66,115)   DRY( 66,116)   DRY( 66,117)   DRY( 66,118)   DRY( 66,119)   
    DRY( 66,120)   DRY( 66,121)   DRY( 66,122)   DRY( 66,123)   DRY( 66,124)   
    DRY( 66,125)   DRY( 66,126)   DRY( 66,127)   DRY( 66,128)   DRY( 66,129)   
    DRY( 66,130)   DRY( 66,131)   DRY( 66,132)   DRY( 66,133)   DRY( 66,134)   
    DRY( 66,135)   DRY( 66,136)   DRY( 66,137)   DRY( 66,138)   DRY( 66,139)   
    DRY( 66,140)   DRY( 66,141)   DRY( 66,142)   DRY( 66,143)   DRY( 66,144)   
    DRY( 66,145)   DRY( 66,146)   DRY( 66,147)   DRY( 66,148)   DRY( 66,149)   
    DRY( 66,150)   DRY( 66,151)   DRY( 66,152)   DRY( 66,153)   DRY( 66,154)   
    DRY( 66,155)   DRY( 66,156)   DRY( 66,157)   DRY( 66,158)   DRY( 66,159)   
    DRY( 66,160)   DRY( 66,161)   DRY( 66,162)   DRY( 66,163)   DRY( 66,164)   
    DRY( 66,165)   DRY( 66,166)   DRY( 66,167)   DRY( 66,168)   DRY( 66,169)   
    DRY( 66,170)   DRY( 66,171)   DRY( 66,172)   DRY( 66,173)   DRY( 66,174)   
    DRY( 66,175)   DRY( 66,176)   DRY( 66,177)   DRY( 66,178)   DRY( 66,179)   
    DRY( 66,180)   DRY( 66,181)   DRY( 66,182)   DRY( 66,183)   DRY( 66,184)   
    DRY( 66,185)   DRY( 66,186)   DRY( 66,187)   DRY( 66,188)   DRY( 66,189)   
    DRY( 66,190)   DRY( 66,191)   DRY( 66,192)   DRY( 66,193)   DRY( 66,194)   
    DRY( 66,195)   DRY( 66,196)   DRY( 66,197)   DRY( 66,198)   DRY( 66,199)   
    DRY( 66,200)   DRY( 66,201)   DRY( 66,202)   DRY( 66,203)   DRY( 66,204)   
    DRY( 66,205)   DRY( 66,206)   DRY( 66,207)   DRY( 66,208)   DRY( 66,209)   
    DRY( 66,210)   DRY( 66,211)   DRY( 66,212)   DRY( 66,213)   DRY( 66,214)   
    DRY( 66,215)   DRY( 66,216)   DRY( 66,217)   DRY( 66,218)   DRY( 66,219)   
    DRY( 66,220)   DRY( 67,125)   DRY( 67,126)   DRY( 67,127)   DRY( 67,128)   
    DRY( 67,129)   DRY( 67,130)   DRY( 67,131)   DRY( 67,132)   DRY( 67,133)   
    DRY( 67,134)   DRY( 67,135)   DRY( 67,136)   DRY( 67,137)   DRY( 67,138)   
    DRY( 67,139)   DRY( 67,140)   DRY( 67,141)   DRY( 67,142)   DRY( 67,143)   
    DRY( 67,144)   DRY( 67,145)   DRY( 67,146)   DRY( 67,147)   DRY( 67,148)   
    DRY( 67,149)   DRY( 67,150)   DRY( 67,151)   DRY( 67,152)   DRY( 67,153)   
    DRY( 67,154)   DRY( 67,155)   DRY( 67,156)   DRY( 67,157)   DRY( 67,158)   
    DRY( 67,159)   DRY( 67,160)   DRY( 67,161)   DRY( 67,162)   DRY( 67,163)   
    DRY( 67,164)   DRY( 67,165)   DRY( 67,166)   DRY( 67,167)   DRY( 67,168)   
    DRY( 67,169)   DRY( 67,170)   DRY( 67,171)   DRY( 67,172)   DRY( 67,173)   
    DRY( 67,174)   DRY( 67,175)   DRY( 67,176)   DRY( 67,177)   DRY( 67,178)   
    DRY( 67,179)   DRY( 67,180)   DRY( 67,181)   DRY( 67,182)   DRY( 67,183)   
    DRY( 67,184)   DRY( 67,185)   DRY( 67,186)   DRY( 67,187)   DRY( 67,188)   
    DRY( 67,189)   DRY( 67,190)   DRY( 67,191)   DRY( 67,192)   DRY( 67,193)   
    DRY( 67,194)   DRY( 67,195)   DRY( 67,196)   DRY( 67,197)   DRY( 67,198)   
    DRY( 67,199)   DRY( 67,200)   DRY( 67,201)   DRY( 67,202)   DRY( 67,203)   
    DRY( 67,204)   DRY( 67,205)   DRY( 67,206)   DRY( 67,207)   DRY( 67,208)   
    DRY( 67,209)   DRY( 67,210)   DRY( 67,211)   DRY( 67,212)   DRY( 67,213)   
    DRY( 67,214)   DRY( 67,215)   DRY( 67,216)   DRY( 67,217)   DRY( 67,218)   
    DRY( 67,219)   DRY( 67,220)   DRY( 68,182)   DRY( 68,183)   DRY( 68,184)   
    DRY( 68,185)   DRY( 68,186)   DRY( 68,187)   DRY( 68,188)   DRY( 68,189)   
    DRY( 68,190)   DRY( 68,191)   DRY( 68,192)   DRY( 68,193)   DRY( 68,194)   
    DRY( 68,195)   DRY( 68,196)   DRY( 68,197)   DRY( 68,198)   DRY( 68,199)   
    DRY( 68,200)   DRY( 68,201)   DRY( 68,202)   DRY( 68,203)   DRY( 68,204)   
    DRY( 68,205)   DRY( 68,206)   DRY( 68,207)   DRY( 68,208)   DRY( 68,209)   
    DRY( 68,210)   DRY( 68,211)   DRY( 68,212)   DRY( 68,213)   DRY( 68,214)   
    DRY( 68,215)   DRY( 68,216)   DRY( 68,217)   DRY( 68,218)   DRY( 68,219)   
    DRY( 68,220)   

 CELL CONVERSIONS FOR ITER.=  4  LAYER= 24  STEP=  1  PERIOD=   1   (ROW,COL)
    DRY( 61, 27)   DRY( 61, 28)   DRY( 61, 29)   DRY( 61, 30)   DRY( 61, 31)   
    DRY( 61, 32)   DRY( 61, 33)   DRY( 61, 34)   DRY( 62,  1)   DRY( 62,  2)   
    DRY( 62,  3)   DRY( 62,  4)   DRY( 62,  5)   DRY( 62,  6)   DRY( 62,  7)   
    DRY( 62,  8)   DRY( 62,  9)   DRY( 62, 10)   DRY( 62, 11)   DRY( 62, 12)   
    DRY( 62, 13)   DRY( 62, 14)   DRY( 62, 15)   DRY( 62, 16)   DRY( 62, 17)   
    DRY( 62, 18)   DRY( 62, 19)   DRY( 62, 20)   DRY( 62, 21)   DRY( 62, 22)   
    DRY( 62, 23)   DRY( 62, 24)   DRY( 62, 25)   DRY( 62, 26)   DRY( 62, 27)   
    DRY( 62, 28)   DRY( 62, 29)   DRY( 62, 30)   DRY( 62, 31)   DRY( 62, 32)   
    DRY( 62, 33)   DRY( 62, 34)   DRY( 62, 35)   DRY( 62, 36)   DRY( 62, 37)   
    DRY( 62, 38)   DRY( 62, 39)   DRY( 62, 40)   DRY( 62, 41)   DRY( 62, 42)   
    DRY( 62, 43)   DRY( 62, 44)   DRY( 62, 45)   DRY( 62, 46)   DRY( 62, 47)   
    DRY( 62, 48)   DRY( 62, 49)   DRY( 62, 50)   DRY( 62, 51)   DRY( 62, 52)   
    DRY( 62, 53)   DRY( 62, 54)   DRY( 62, 55)   DRY( 62, 56)   DRY( 62, 57)   
    DRY( 62, 58)   DRY( 62, 59)   DRY( 62, 60)   DRY( 62, 61)   DRY( 62, 62)   
    DRY( 62, 63)   DRY( 62, 64)   DRY( 62, 65)   DRY( 62, 66)   DRY( 62, 67)   
    DRY( 62, 68)   DRY( 62, 69)   DRY( 62, 70)   DRY( 62, 71)   DRY( 62, 72)   
    DRY( 62, 73)   DRY( 62, 74)   DRY( 62, 75)   DRY( 62, 76)   DRY( 62, 77)   
    DRY( 62, 78)   DRY( 62, 79)   DRY( 62, 80)   DRY( 62, 81)   DRY( 62, 82)   
    DRY( 62, 83)   DRY( 62, 84)   DRY( 62, 85)   DRY( 62, 86)   DRY( 62, 87)   
    DRY( 62, 88)   DRY( 62, 89)   DRY( 62, 90)   DRY( 62, 91)   DRY( 62, 92)   
    DRY( 62, 93)   DRY( 62, 94)   DRY( 62, 95)   DRY( 62, 96)   DRY( 62, 97)   
    DRY( 62, 98)   DRY( 62, 99)   DRY( 62,100)   DRY( 62,101)   DRY( 62,102)   
    DRY( 62,103)   DRY( 62,104)   DRY( 62,105)   DRY( 62,106)   DRY( 62,107)   
    DRY( 62,108)   DRY( 62,109)   DRY( 62,110)   DRY( 62,111)   DRY( 62,112)   
    DRY( 62,113)   DRY( 62,114)   DRY( 62,115)   DRY( 62,116)   DRY( 62,117)   
    DRY( 62,118)   DRY( 62,119)   DRY( 62,120)   DRY( 62,121)   DRY( 62,122)   
    DRY( 62,123)   DRY( 62,124)   DRY( 62,125)   DRY( 62,126)   DRY( 62,127)   
    DRY( 62,128)   DRY( 62,129)   DRY( 62,130)   DRY( 62,131)   DRY( 62,132)   
    DRY( 62,133)   DRY( 62,134)   DRY( 62,135)   DRY( 62,136)   DRY( 62,137)   
    DRY( 62,138)   DRY( 62,139)   DRY( 62,140)   DRY( 62,141)   DRY( 62,142)   
    DRY( 62,143)   DRY( 62,144)   DRY( 62,145)   DRY( 62,146)   DRY( 62,147)   
    DRY( 62,148)   DRY( 62,149)   DRY( 62,150)   DRY( 62,151)   DRY( 62,152)   
    DRY( 62,153)   DRY( 62,154)   DRY( 62,155)   DRY( 62,156)   DRY( 62,157)   
    DRY( 62,158)   DRY( 62,159)   DRY( 62,160)   DRY( 62,161)   DRY( 62,162)   
    DRY( 62,163)   DRY( 62,164)   DRY( 62,165)   DRY( 62,166)   DRY( 62,167)   
    DRY( 62,168)   DRY( 62,169)   DRY( 62,170)   DRY( 62,171)   DRY( 62,172)   
    DRY( 62,173)   DRY( 62,174)   DRY( 62,175)   DRY( 62,176)   DRY( 62,177)   
    DRY( 62,178)   DRY( 62,179)   DRY( 62,180)   DRY( 62,181)   DRY( 62,182)   
    DRY( 62,183)   DRY( 62,184)   DRY( 62,185)   DRY( 62,186)   DRY( 62,187)   
    DRY( 62,188)   DRY( 62,189)   DRY( 62,190)   DRY( 62,191)   DRY( 62,192)   
    DRY( 62,193)   DRY( 62,194)   DRY( 62,195)   DRY( 62,196)   DRY( 62,197)   
    DRY( 62,198)   DRY( 62,199)   DRY( 62,200)   DRY( 62,201)   DRY( 62,202)   
    DRY( 62,203)   DRY( 62,204)   DRY( 62,205)   DRY( 62,206)   DRY( 62,207)   
    DRY( 62,208)   DRY( 62,209)   DRY( 62,210)   DRY( 62,211)   DRY( 62,212)   
    DRY( 62,213)   DRY( 62,214)   DRY( 62,215)   DRY( 62,216)   DRY( 62,217)   
    DRY( 62,218)   DRY( 62,219)   DRY( 62,220)   DRY( 63,  1)   DRY( 63,  2)   
    DRY( 63,  3)   DRY( 63,  4)   DRY( 63,  5)   DRY( 63,  6)   DRY( 63,  7)   
    DRY( 63,  8)   DRY( 63,  9)   DRY( 63, 10)   DRY( 63, 11)   DRY( 63, 12)   
    DRY( 63, 13)   DRY( 63, 14)   DRY( 63, 15)   DRY( 63, 16)   DRY( 63, 17)   
    DRY( 63, 18)   DRY( 63, 19)   DRY( 63, 20)   DRY( 63, 21)   DRY( 63, 22)   
    DRY( 63, 23)   DRY( 63, 24)   DRY( 63, 25)   DRY( 63, 26)   DRY( 63, 27)   
    DRY( 63, 28)   DRY( 63, 29)   DRY( 63, 30)   DRY( 63, 31)   DRY( 63, 32)   
    DRY( 63, 33)   DRY( 63, 34)   DRY( 63, 35)   DRY( 63, 36)   DRY( 63, 37)   
    DRY( 63, 38)   DRY( 63, 39)   DRY( 63, 40)   DRY( 63, 41)   DRY( 63, 42)   
    DRY( 63, 43)   DRY( 63, 44)   DRY( 63, 45)   DRY( 63, 46)   DRY( 63, 47)   
    DRY( 63, 48)   DRY( 63, 49)   DRY( 63, 50)   DRY( 63, 51)   DRY( 63, 52)   
    DRY( 63, 53)   DRY( 63, 54)   DRY( 63, 55)   DRY( 63, 56)   DRY( 63, 57)   
    DRY( 63, 58)   DRY( 63, 59)   DRY( 63, 60)   DRY( 63, 61)   DRY( 63, 62)   
    DRY( 63, 63)   DRY( 63, 64)   DRY( 63, 65)   DRY( 63, 66)   DRY( 63, 67)   
    DRY( 63, 68)   DRY( 63, 69)   DRY( 63, 70)   DRY( 63, 71)   DRY( 63, 72)   
    DRY( 63, 73)   DRY( 63, 74)   DRY( 63, 75)   DRY( 63, 76)   DRY( 63, 77)   
    DRY( 63, 78)   DRY( 63, 79)   DRY( 63, 80)   DRY( 63, 81)   DRY( 63, 82)   
    DRY( 63, 83)   DRY( 63, 84)   DRY( 63, 85)   DRY( 63, 86)   DRY( 63, 87)   
    DRY( 63, 88)   DRY( 63, 89)   DRY( 63, 90)   DRY( 63, 91)   DRY( 63, 92)   
    DRY( 63, 93)   DRY( 63, 94)   DRY( 63, 95)   DRY( 63, 96)   DRY( 63, 97)   
    DRY( 63, 98)   DRY( 63, 99)   DRY( 63,100)   DRY( 63,101)   DRY( 63,102)   
    DRY( 63,103)   DRY( 63,104)   DRY( 63,105)   DRY( 63,106)   DRY( 63,107)   
    DRY( 63,108)   DRY( 63,109)   DRY( 63,110)   DRY( 63,111)   DRY( 63,112)   
    DRY( 63,113)   DRY( 63,114)   DRY( 63,115)   DRY( 63,116)   DRY( 63,117)   
    DRY( 63,118)   DRY( 63,119)   DRY( 63,120)   DRY( 63,121)   DRY( 63,122)   
    DRY( 63,123)   DRY( 63,124)   DRY( 63,125)   DRY( 63,126)   DRY( 63,127)   
    DRY( 63,128)   DRY( 63,129)   DRY( 63,130)   DRY( 63,131)   DRY( 63,132)   
    DRY( 63,133)   DRY( 63,134)   DRY( 63,135)   DRY( 63,136)   DRY( 63,137)   
    DRY( 63,138)   DRY( 63,139)   DRY( 63,140)   DRY( 63,141)   DRY( 63,142)   
    DRY( 63,143)   DRY( 63,144)   DRY( 63,145)   DRY( 63,146)   DRY( 63,147)   
    DRY( 63,148)   DRY( 63,149)   DRY( 63,150)   DRY( 63,151)   DRY( 63,152)   
    DRY( 63,153)   DRY( 63,154)   DRY( 63,155)   DRY( 63,156)   DRY( 63,157)   
    DRY( 63,158)   DRY( 63,159)   DRY( 63,160)   DRY( 63,161)   DRY( 63,162)   
    DRY( 63,163)   DRY( 63,164)   DRY( 63,165)   DRY( 63,166)   DRY( 63,167)   
    DRY( 63,168)   DRY( 63,169)   DRY( 63,170)   DRY( 63,171)   DRY( 63,172)   
    DRY( 63,173)   DRY( 63,174)   DRY( 63,175)   DRY( 63,176)   DRY( 63,177)   
    DRY( 63,178)   DRY( 63,179)   DRY( 63,180)   DRY( 63,181)   DRY( 63,182)   
    DRY( 63,183)   DRY( 63,184)   DRY( 63,185)   DRY( 63,186)   DRY( 63,187)   
    DRY( 63,188)   DRY( 63,189)   DRY( 63,190)   DRY( 63,191)   DRY( 63,192)   
    DRY( 63,193)   DRY( 63,194)   DRY( 63,195)   DRY( 63,196)   DRY( 63,197)   
    DRY( 63,198)   DRY( 63,199)   DRY( 63,200)   DRY( 63,201)   DRY( 63,202)   
    DRY( 63,203)   DRY( 63,204)   DRY( 63,205)   DRY( 63,206)   DRY( 63,207)   
    DRY( 63,208)   DRY( 63,209)   DRY( 63,210)   DRY( 63,211)   DRY( 63,212)   
    DRY( 63,213)   DRY( 63,214)   DRY( 63,215)   DRY( 63,216)   DRY( 63,217)   
    DRY( 63,218)   DRY( 63,219)   DRY( 63,220)   DRY( 64,  1)   DRY( 64,  2)   
    DRY( 64,  3)   DRY( 64,  4)   DRY( 64,  5)   DRY( 64,  6)   DRY( 64,  7)   
    DRY( 64,  8)   DRY( 64,  9)   DRY( 64, 10)   DRY( 64, 11)   DRY( 64, 12)   
    DRY( 64, 13)   DRY( 64, 14)   DRY( 64, 15)   DRY( 64, 16)   DRY( 64, 17)   
    DRY( 64, 18)   DRY( 64, 19)   DRY( 64, 20)   DRY( 64, 21)   DRY( 64, 22)   
    DRY( 64, 23)   DRY( 64, 24)   DRY( 64, 25)   DRY( 64, 26)   DRY( 64, 27)   
    DRY( 64, 28)   DRY( 64, 29)   DRY( 64, 30)   DRY( 64, 31)   DRY( 64, 32)   
    DRY( 64, 33)   DRY( 64, 34)   DRY( 64, 35)   DRY( 64, 36)   DRY( 64, 37)   
    DRY( 64, 38)   DRY( 64, 39)   DRY( 64, 40)   DRY( 64, 41)   DRY( 64, 42)   
    DRY( 64, 43)   DRY( 64, 44)   DRY( 64, 45)   DRY( 64, 46)   DRY( 64, 47)   
    DRY( 64, 48)   DRY( 64, 49)   DRY( 64, 50)   DRY( 64, 51)   DRY( 64, 52)   
    DRY( 64, 53)   DRY( 64, 54)   DRY( 64, 55)   DRY( 64, 56)   DRY( 64, 57)   
    DRY( 64, 58)   DRY( 64, 59)   DRY( 64, 60)   DRY( 64, 61)   DRY( 64, 62)   
    DRY( 64, 63)   DRY( 64, 64)   DRY( 64, 65)   DRY( 64, 66)   DRY( 64, 67)   
    DRY( 64, 68)   DRY( 64, 69)   DRY( 64, 70)   DRY( 64, 71)   DRY( 64, 72)   
    DRY( 64, 73)   DRY( 64, 74)   DRY( 64, 75)   DRY( 64, 76)   DRY( 64, 77)   
    DRY( 64, 78)   DRY( 64, 79)   DRY( 64, 80)   DRY( 64, 81)   DRY( 64, 82)   
    DRY( 64, 83)   DRY( 64, 84)   DRY( 64, 85)   DRY( 64, 86)   DRY( 64, 87)   
    DRY( 64, 88)   DRY( 64, 89)   DRY( 64, 90)   DRY( 64, 91)   DRY( 64, 92)   
    DRY( 64, 93)   DRY( 64, 94)   DRY( 64, 95)   DRY( 64, 96)   DRY( 64, 97)   
    DRY( 64, 98)   DRY( 64, 99)   DRY( 64,100)   DRY( 64,101)   DRY( 64,102)   
    DRY( 64,103)   DRY( 64,104)   DRY( 64,105)   DRY( 64,106)   DRY( 64,107)   
    DRY( 64,108)   DRY( 64,109)   DRY( 64,110)   DRY( 64,111)   DRY( 64,112)   
    DRY( 64,113)   DRY( 64,114)   DRY( 64,115)   DRY( 64,116)   DRY( 64,117)   
    DRY( 64,118)   DRY( 64,119)   DRY( 64,120)   DRY( 64,121)   DRY( 64,122)   
    DRY( 64,123)   DRY( 64,124)   DRY( 64,125)   DRY( 64,126)   DRY( 64,127)   
    DRY( 64,128)   DRY( 64,129)   DRY( 64,130)   DRY( 64,131)   DRY( 64,132)   
    DRY( 64,133)   DRY( 64,134)   DRY( 64,135)   DRY( 64,136)   DRY( 64,137)   
    DRY( 64,138)   DRY( 64,139)   DRY( 64,140)   DRY( 64,141)   DRY( 64,142)   
    DRY( 64,143)   DRY( 64,144)   DRY( 64,145)   DRY( 64,146)   DRY( 64,147)   
    DRY( 64,148)   DRY( 64,149)   DRY( 64,150)   DRY( 64,151)   DRY( 64,152)   
    DRY( 64,153)   DRY( 64,154)   DRY( 64,155)   DRY( 64,156)   DRY( 64,157)   
    DRY( 64,158)   DRY( 64,159)   DRY( 64,160)   DRY( 64,161)   DRY( 64,162)   
    DRY( 64,163)   DRY( 64,164)   DRY( 64,165)   DRY( 64,166)   DRY( 64,167)   
    DRY( 64,168)   DRY( 64,169)   DRY( 64,170)   DRY( 64,171)   DRY( 64,172)   
    DRY( 64,173)   DRY( 64,174)   DRY( 64,175)   DRY( 64,176)   DRY( 64,177)   
    DRY( 64,178)   DRY( 64,179)   DRY( 64,180)   DRY( 64,181)   DRY( 64,182)   
    DRY( 64,183)   DRY( 64,184)   DRY( 64,185)   DRY( 64,186)   DRY( 64,187)   
    DRY( 64,188)   DRY( 64,189)   DRY( 64,190)   DRY( 64,191)   DRY( 64,192)   
    DRY( 64,193)   DRY( 64,194)   DRY( 64,195)   DRY( 64,196)   DRY( 64,197)   
    DRY( 64,198)   DRY( 64,199)   DRY( 64,200)   DRY( 64,201)   DRY( 64,202)   
    DRY( 64,203)   DRY( 64,204)   DRY( 64,205)   DRY( 64,206)   DRY( 64,207)   
    DRY( 64,208)   DRY( 64,209)   DRY( 64,210)   DRY( 64,211)   DRY( 64,212)   
    DRY( 64,213)   DRY( 64,214)   DRY( 64,215)   DRY( 64,216)   DRY( 64,217)   
    DRY( 64,218)   DRY( 64,219)   DRY( 64,220)   DRY( 65,  1)   DRY( 65,  2)   
    DRY( 65,  3)   DRY( 65,  4)   DRY( 65,  5)   DRY( 65,  6)   DRY( 65,  7)   
    DRY( 65,  8)   DRY( 65,  9)   DRY( 65, 10)   DRY( 65, 11)   DRY( 65, 12)   
    DRY( 65, 13)   DRY( 65, 14)   DRY( 65, 15)   DRY( 65, 16)   DRY( 65, 17)   
    DRY( 65, 18)   DRY( 65, 19)   DRY( 65, 20)   DRY( 65, 21)   DRY( 65, 22)   
    DRY( 65, 23)   DRY( 65, 24)   DRY( 65, 25)   DRY( 65, 26)   DRY( 65, 27)   
    DRY( 65, 28)   DRY( 65, 29)   DRY( 65, 30)   DRY( 65, 31)   DRY( 65, 32)   
    DRY( 65, 33)   DRY( 65, 34)   DRY( 65, 35)   DRY( 65, 36)   DRY( 65, 37)   
    DRY( 65, 38)   DRY( 65, 39)   DRY( 65, 40)   DRY( 65, 41)   DRY( 65, 42)   
    DRY( 65, 43)   DRY( 65, 44)   DRY( 65, 45)   DRY( 65, 46)   DRY( 65, 47)   
    DRY( 65, 48)   DRY( 65, 49)   DRY( 65, 50)   DRY( 65, 51)   DRY( 65, 52)   
    DRY( 65, 53)   DRY( 65, 54)   DRY( 65, 55)   DRY( 65, 56)   DRY( 65, 57)   
    DRY( 65, 58)   DRY( 65, 59)   DRY( 65, 60)   DRY( 65, 61)   DRY( 65, 62)   
    DRY( 65, 63)   DRY( 65, 64)   DRY( 65, 65)   DRY( 65, 66)   DRY( 65, 67)   
    DRY( 65, 68)   DRY( 65, 69)   DRY( 65, 70)   DRY( 65, 71)   DRY( 65, 72)   
    DRY( 65, 73)   DRY( 65, 74)   DRY( 65, 75)   DRY( 65, 76)   DRY( 65, 77)   
    DRY( 65, 78)   DRY( 65, 79)   DRY( 65, 80)   DRY( 65, 81)   DRY( 65, 82)   
    DRY( 65, 83)   DRY( 65, 84)   DRY( 65, 85)   DRY( 65, 86)   DRY( 65, 87)   
    DRY( 65, 88)   DRY( 65, 89)   DRY( 65, 90)   DRY( 65, 91)   DRY( 65, 92)   
    DRY( 65, 93)   DRY( 65, 94)   DRY( 65, 95)   DRY( 65, 96)   DRY( 65, 97)   
    DRY( 65, 98)   DRY( 65, 99)   DRY( 65,100)   DRY( 65,101)   DRY( 65,102)   
    DRY( 65,103)   DRY( 65,104)   DRY( 65,105)   DRY( 65,106)   DRY( 65,107)   
    DRY( 65,108)   DRY( 65,109)   DRY( 65,110)   DRY( 65,111)   DRY( 65,112)   
    DRY( 65,113)   DRY( 65,114)   DRY( 65,115)   DRY( 65,116)   DRY( 65,117)   
    DRY( 65,118)   DRY( 65,119)   DRY( 65,120)   DRY( 65,121)   DRY( 65,122)   
    DRY( 65,123)   DRY( 65,124)   DRY( 65,125)   DRY( 65,126)   DRY( 65,127)   
    DRY( 65,128)   DRY( 65,129)   DRY( 65,130)   DRY( 65,131)   DRY( 65,132)   
    DRY( 65,133)   DRY( 65,134)   DRY( 65,135)   DRY( 65,136)   DRY( 65,137)   
    DRY( 65,138)   DRY( 65,139)   DRY( 65,140)   DRY( 65,141)   DRY( 65,142)   
    DRY( 65,143)   DRY( 65,144)   DRY( 65,145)   DRY( 65,146)   DRY( 65,147)   
    DRY( 65,148)   DRY( 65,149)   DRY( 65,150)   DRY( 65,151)   DRY( 65,152)   
    DRY( 65,153)   DRY( 65,154)   DRY( 65,155)   DRY( 65,156)   DRY( 65,157)   
    DRY( 65,158)   DRY( 65,159)   DRY( 65,160)   DRY( 65,161)   DRY( 65,162)   
    DRY( 65,163)   DRY( 65,164)   DRY( 65,165)   DRY( 65,166)   DRY( 65,167)   
    DRY( 65,168)   DRY( 65,169)   DRY( 65,170)   DRY( 65,171)   DRY( 65,172)   
    DRY( 65,173)   DRY( 65,174)   DRY( 65,175)   DRY( 65,176)   DRY( 65,177)   
    DRY( 65,178)   DRY( 65,179)   DRY( 65,180)   DRY( 65,181)   DRY( 65,182)   
    DRY( 65,183)   DRY( 65,184)   DRY( 65,185)   DRY( 65,186)   DRY( 65,187)   
    DRY( 65,188)   DRY( 65,189)   DRY( 65,190)   DRY( 65,191)   DRY( 65,192)   
    DRY( 65,193)   DRY( 65,194)   DRY( 65,195)   DRY( 65,196)   DRY( 65,197)   
    DRY( 65,198)   DRY( 65,199)   DRY( 65,200)   DRY( 65,201)   DRY( 65,202)   
    DRY( 65,203)   DRY( 65,204)   DRY( 65,205)   DRY( 65,206)   DRY( 65,207)   
    DRY( 65,208)   DRY( 65,209)   DRY( 65,210)   DRY( 65,211)   DRY( 65,212)   
    DRY( 65,213)   DRY( 65,214)   DRY( 65,215)   DRY( 65,216)   DRY( 65,217)   
    DRY( 65,218)   DRY( 65,219)   DRY( 65,220)   DRY( 66,  1)   DRY( 66,  2)   
    DRY( 66,  3)   DRY( 66,  4)   DRY( 66,  5)   DRY( 66,  6)   DRY( 66,  7)   
    DRY( 66,  8)   DRY( 66,  9)   DRY( 66, 10)   DRY( 66, 11)   DRY( 66, 12)   
    DRY( 66, 13)   DRY( 66, 14)   DRY( 66, 15)   DRY( 66, 16)   DRY( 66, 17)   
    DRY( 66, 18)   DRY( 66, 19)   DRY( 66, 20)   DRY( 66, 21)   DRY( 66, 22)   
    DRY( 66, 23)   DRY( 66, 24)   DRY( 66, 25)   DRY( 66, 26)   DRY( 66, 27)   
    DRY( 66, 28)   DRY( 66, 29)   DRY( 66, 30)   DRY( 66, 31)   DRY( 66, 32)   
    DRY( 66, 33)   DRY( 66, 34)   DRY( 66, 35)   DRY( 66, 36)   DRY( 66, 37)   
    DRY( 66, 38)   DRY( 66, 39)   DRY( 66, 40)   DRY( 66, 41)   DRY( 66, 42)   
    DRY( 66, 43)   DRY( 66, 44)   DRY( 66, 45)   DRY( 66, 46)   DRY( 66, 47)   
    DRY( 66, 48)   DRY( 66, 49)   DRY( 66, 50)   DRY( 66, 51)   DRY( 66, 52)   
    DRY( 66, 53)   DRY( 66, 54)   DRY( 66, 55)   DRY( 66, 56)   DRY( 66, 57)   
    DRY( 66, 58)   DRY( 66, 59)   DRY( 66, 60)   DRY( 66, 61)   DRY( 66, 62)   
    DRY( 66, 63)   DRY( 66, 64)   DRY( 66, 65)   DRY( 66, 66)   DRY( 66, 67)   
    DRY( 66, 68)   DRY( 66, 69)   DRY( 66, 70)   DRY( 66, 71)   DRY( 66, 72)   
    DRY( 66, 73)   DRY( 66, 74)   DRY( 66, 75)   DRY( 66, 76)   DRY( 66, 77)   
    DRY( 66, 78)   DRY( 66, 79)   DRY( 66, 80)   DRY( 66, 81)   DRY( 66, 82)   
    DRY( 66, 83)   DRY( 66, 84)   DRY( 66, 85)   DRY( 66, 86)   DRY( 66, 87)   
    DRY( 66, 88)   DRY( 66, 89)   DRY( 66, 90)   DRY( 66, 91)   DRY( 66, 92)   
    DRY( 66, 93)   DRY( 66, 94)   DRY( 66, 95)   DRY( 66, 96)   DRY( 66, 97)   
    DRY( 66, 98)   DRY( 66, 99)   DRY( 66,100)   DRY( 66,101)   DRY( 66,102)   
    DRY( 66,103)   DRY( 66,104)   DRY( 66,105)   DRY( 66,106)   DRY( 66,107)   
    DRY( 66,108)   DRY( 66,109)   DRY( 66,110)   DRY( 66,111)   DRY( 66,112)   
    DRY( 66,113)   DRY( 66,114)   DRY( 66,115)   DRY( 66,116)   DRY( 66,117)   
    DRY( 66,118)   DRY( 66,119)   DRY( 66,120)   DRY( 66,121)   DRY( 66,122)   
    DRY( 66,123)   DRY( 66,124)   DRY( 66,125)   DRY( 66,126)   DRY( 66,127)   
    DRY( 66,128)   DRY( 66,129)   DRY( 66,130)   DRY( 66,131)   DRY( 66,132)   
    DRY( 66,133)   DRY( 66,134)   DRY( 66,135)   DRY( 66,136)   DRY( 66,137)   
    DRY( 66,138)   DRY( 66,139)   DRY( 66,140)   DRY( 66,141)   DRY( 66,142)   
    DRY( 66,143)   DRY( 66,144)   DRY( 66,145)   DRY( 66,146)   DRY( 66,147)   
    DRY( 66,148)   DRY( 66,149)   DRY( 66,150)   DRY( 66,151)   DRY( 66,152)   
    DRY( 66,153)   DRY( 66,154)   DRY( 66,155)   DRY( 66,156)   DRY( 66,157)   
    DRY( 66,158)   DRY( 66,159)   DRY( 66,160)   DRY( 66,161)   DRY( 66,162)   
    DRY( 66,163)   DRY( 66,164)   DRY( 66,165)   DRY( 66,166)   DRY( 66,167)   
    DRY( 66,168)   DRY( 66,169)   DRY( 66,170)   DRY( 66,171)   DRY( 66,172)   
    DRY( 66,173)   DRY( 66,174)   DRY( 66,175)   DRY( 66,176)   DRY( 66,177)   
    DRY( 66,178)   DRY( 66,179)   DRY( 66,180)   DRY( 66,181)   DRY( 66,182)   
    DRY( 66,183)   DRY( 66,184)   DRY( 66,185)   DRY( 66,186)   DRY( 66,187)   
    DRY( 66,188)   DRY( 66,189)   DRY( 66,190)   DRY( 66,191)   DRY( 66,192)   
    DRY( 66,193)   DRY( 66,194)   DRY( 66,195)   DRY( 66,196)   DRY( 66,197)   
    DRY( 66,198)   DRY( 66,199)   DRY( 66,200)   DRY( 66,201)   DRY( 66,202)   
    DRY( 66,203)   DRY( 66,204)   DRY( 66,205)   DRY( 66,206)   DRY( 66,207)   
    DRY( 66,208)   DRY( 66,209)   DRY( 66,210)   DRY( 66,211)   DRY( 66,212)   
    DRY( 66,213)   DRY( 66,214)   DRY( 66,215)   DRY( 66,216)   DRY( 66,217)   
    DRY( 66,218)   DRY( 66,219)   DRY( 66,220)   DRY( 67,  1)   DRY( 67,  2)   
    DRY( 67,  3)   DRY( 67,  4)   DRY( 67,  5)   DRY( 67,  6)   DRY( 67,  7)   
    DRY( 67,  8)   DRY( 67,  9)   DRY( 67, 10)   DRY( 67, 11)   DRY( 67, 12)   
    DRY( 67, 13)   DRY( 67, 14)   DRY( 67, 15)   DRY( 67, 16)   DRY( 67, 17)   
    DRY( 67, 18)   DRY( 67, 19)   DRY( 67, 20)   DRY( 67, 21)   DRY( 67, 22)   
    DRY( 67, 23)   DRY( 67, 24)   DRY( 67, 25)   DRY( 67, 26)   DRY( 67, 27)   
    DRY( 67, 28)   DRY( 67, 29)   DRY( 67, 30)   DRY( 67, 31)   DRY( 67, 32)   
    DRY( 67, 33)   DRY( 67, 34)   DRY( 67, 35)   DRY( 67, 36)   DRY( 67, 37)   
    DRY( 67, 38)   DRY( 67, 39)   DRY( 67, 40)   DRY( 67, 41)   DRY( 67, 42)   
    DRY( 67, 43)   DRY( 67, 44)   DRY( 67, 45)   DRY( 67, 46)   DRY( 67, 47)   
    DRY( 67, 48)   DRY( 67, 49)   DRY( 67, 50)   DRY( 67, 51)   DRY( 67, 52)   
    DRY( 67, 53)   DRY( 67, 54)   DRY( 67, 55)   DRY( 67, 56)   DRY( 67, 57)   
    DRY( 67, 58)   DRY( 67, 59)   DRY( 67, 60)   DRY( 67, 61)   DRY( 67, 62)   
    DRY( 67, 63)   DRY( 67, 64)   DRY( 67, 65)   DRY( 67, 66)   DRY( 67, 67)   
    DRY( 67, 68)   DRY( 67, 69)   DRY( 67, 70)   DRY( 67, 71)   DRY( 67, 72)   
    DRY( 67, 73)   DRY( 67, 74)   DRY( 67, 75)   DRY( 67, 76)   DRY( 67, 77)   
    DRY( 67, 78)   DRY( 67, 79)   DRY( 67, 80)   DRY( 67, 81)   DRY( 67, 82)   
    DRY( 67, 83)   DRY( 67, 84)   DRY( 67, 85)   DRY( 67, 86)   DRY( 67, 87)   
    DRY( 67, 88)   DRY( 67, 89)   DRY( 67, 90)   DRY( 67, 91)   DRY( 67, 92)   
    DRY( 67, 93)   DRY( 67, 94)   DRY( 67, 95)   DRY( 67, 96)   DRY( 67, 97)   
    DRY( 67, 98)   DRY( 67, 99)   DRY( 67,100)   DRY( 67,101)   DRY( 67,102)   
    DRY( 67,103)   DRY( 67,104)   DRY( 67,105)   DRY( 67,106)   DRY( 67,107)   
    DRY( 67,108)   DRY( 67,109)   DRY( 67,110)   DRY( 67,111)   DRY( 67,112)   
    DRY( 67,113)   DRY( 67,114)   DRY( 67,115)   DRY( 67,116)   DRY( 67,117)   
    DRY( 67,118)   DRY( 67,119)   DRY( 67,120)   DRY( 67,121)   DRY( 67,122)   
    DRY( 67,123)   DRY( 67,124)   DRY( 67,125)   DRY( 67,126)   DRY( 67,127)   
    DRY( 67,128)   DRY( 67,129)   DRY( 67,130)   DRY( 67,131)   DRY( 67,132)   
    DRY( 67,133)   DRY( 67,134)   DRY( 67,135)   DRY( 67,136)   DRY( 67,137)   
    DRY( 67,138)   DRY( 67,139)   DRY( 67,140)   DRY( 67,141)   DRY( 67,142)   
    DRY( 67,143)   DRY( 67,144)   DRY( 67,145)   DRY( 67,146)   DRY( 67,147)   
    DRY( 67,148)   DRY( 67,149)   DRY( 67,150)   DRY( 67,151)   DRY( 67,152)   
    DRY( 67,153)   DRY( 67,154)   DRY( 67,155)   DRY( 67,156)   DRY( 67,157)   
    DRY( 67,158)   DRY( 67,159)   DRY( 67,160)   DRY( 67,161)   DRY( 67,162)   
    DRY( 67,163)   DRY( 67,164)   DRY( 67,165)   DRY( 67,166)   DRY( 67,167)   
    DRY( 67,168)   DRY( 67,169)   DRY( 67,170)   DRY( 67,171)   DRY( 67,172)   
    DRY( 67,173)   DRY( 67,174)   DRY( 67,175)   DRY( 67,176)   DRY( 67,177)   
    DRY( 67,178)   DRY( 67,179)   DRY( 67,180)   DRY( 67,181)   DRY( 67,182)   
    DRY( 67,183)   DRY( 67,184)   DRY( 67,185)   DRY( 67,186)   DRY( 67,187)   
    DRY( 67,188)   DRY( 67,189)   DRY( 67,190)   DRY( 67,191)   DRY( 67,192)   
    DRY( 67,193)   DRY( 67,194)   DRY( 67,195)   DRY( 67,196)   DRY( 67,197)   
    DRY( 67,198)   DRY( 67,199)   DRY( 67,200)   DRY( 67,201)   DRY( 67,202)   
    DRY( 67,203)   DRY( 67,204)   DRY( 67,205)   DRY( 67,206)   DRY( 67,207)   
    DRY( 67,208)   DRY( 67,209)   DRY( 67,210)   DRY( 67,211)   DRY( 67,212)   
    DRY( 67,213)   DRY( 67,214)   DRY( 67,215)   DRY( 67,216)   DRY( 67,217)   
    DRY( 67,218)   DRY( 67,219)   DRY( 67,220)   DRY( 68,  1)   DRY( 68,  2)   
    DRY( 68,  3)   DRY( 68,  4)   DRY( 68,  5)   DRY( 68,  6)   DRY( 68,  7)   
    DRY( 68,  8)   DRY( 68,  9)   DRY( 68, 10)   DRY( 68, 11)   DRY( 68, 12)   
    DRY( 68, 13)   DRY( 68, 14)   DRY( 68, 15)   DRY( 68, 16)   DRY( 68, 17)   
    DRY( 68, 18)   DRY( 68, 19)   DRY( 68, 20)   DRY( 68, 21)   DRY( 68, 22)   
    DRY( 68, 23)   DRY( 68, 24)   DRY( 68, 25)   DRY( 68, 26)   DRY( 68, 27)   
    DRY( 68, 28)   DRY( 68, 29)   DRY( 68, 30)   DRY( 68, 31)   DRY( 68, 32)   
    DRY( 68, 33)   DRY( 68, 34)   DRY( 68, 35)   DRY( 68, 36)   DRY( 68, 37)   
    DRY( 68, 38)   DRY( 68, 39)   DRY( 68, 40)   DRY( 68, 41)   DRY( 68, 42)   
    DRY( 68, 43)   DRY( 68, 44)   DRY( 68, 45)   DRY( 68, 46)   DRY( 68, 47)   
    DRY( 68, 48)   DRY( 68, 49)   DRY( 68, 50)   DRY( 68, 51)   DRY( 68, 52)   
    DRY( 68, 53)   DRY( 68, 54)   DRY( 68, 55)   DRY( 68, 56)   DRY( 68, 57)   
    DRY( 68, 58)   DRY( 68, 59)   DRY( 68, 60)   DRY( 68, 61)   DRY( 68, 62)   
    DRY( 68, 63)   DRY( 68, 64)   DRY( 68, 65)   DRY( 68, 66)   DRY( 68, 67)   
    DRY( 68, 68)   DRY( 68, 69)   DRY( 68, 70)   DRY( 68, 71)   DRY( 68, 72)   
    DRY( 68, 73)   DRY( 68, 74)   DRY( 68, 75)   DRY( 68, 76)   DRY( 68, 77)   
    DRY( 68, 78)   DRY( 68, 79)   DRY( 68, 80)   DRY( 68, 81)   DRY( 68, 82)   
    DRY( 68, 83)   DRY( 68, 84)   DRY( 68, 85)   DRY( 68, 86)   DRY( 68, 87)   
    DRY( 68, 88)   DRY( 68, 89)   DRY( 68, 90)   DRY( 68, 91)   DRY( 68, 92)   
    DRY( 68, 93)   DRY( 68, 94)   DRY( 68, 95)   DRY( 68, 96)   DRY( 68, 97)   
    DRY( 68, 98)   DRY( 68, 99)   DRY( 68,100)   DRY( 68,101)   DRY( 68,102)   
    DRY( 68,103)   DRY( 68,104)   DRY( 68,105)   DRY( 68,106)   DRY( 68,107)   
    DRY( 68,108)   DRY( 68,109)   DRY( 68,110)   DRY( 68,111)   DRY( 68,112)   
    DRY( 68,113)   DRY( 68,114)   DRY( 68,115)   DRY( 68,116)   DRY( 68,117)   
    DRY( 68,118)   DRY( 68,119)   DRY( 68,120)   DRY( 68,121)   DRY( 68,122)   
    DRY( 68,123)   DRY( 68,124)   DRY( 68,125)   DRY( 68,126)   DRY( 68,127)   
    DRY( 68,128)   DRY( 68,129)   DRY( 68,130)   DRY( 68,131)   DRY( 68,132)   
    DRY( 68,133)   DRY( 68,134)   DRY( 68,135)   DRY( 68,136)   DRY( 68,137)   
    DRY( 68,138)   DRY( 68,139)   DRY( 68,140)   DRY( 68,141)   DRY( 68,142)   
    DRY( 68,143)   DRY( 68,144)   DRY( 68,145)   DRY( 68,146)   DRY( 68,147)   
    DRY( 68,148)   DRY( 68,149)   DRY( 68,150)   DRY( 68,151)   DRY( 68,152)   
    DRY( 68,153)   DRY( 68,154)   DRY( 68,155)   DRY( 68,156)   DRY( 68,157)   
    DRY( 68,158)   DRY( 68,159)   DRY( 68,160)   DRY( 68,161)   DRY( 68,162)   
    DRY( 68,163)   DRY( 68,164)   DRY( 68,165)   DRY( 68,166)   DRY( 68,167)   
    DRY( 68,168)   DRY( 68,169)   DRY( 68,170)   DRY( 68,171)   DRY( 68,172)   
    DRY( 68,173)   DRY( 68,174)   DRY( 68,175)   DRY( 68,176)   DRY( 68,177)   
    DRY( 68,178)   DRY( 68,179)   DRY( 68,180)   DRY( 68,181)   DRY( 68,182)   
    DRY( 68,183)   DRY( 68,184)   DRY( 68,185)   DRY( 68,186)   DRY( 68,187)   
    DRY( 68,188)   DRY( 68,189)   DRY( 68,190)   DRY( 68,191)   DRY( 68,192)   
    DRY( 68,193)   DRY( 68,194)   DRY( 68,195)   DRY( 68,196)   DRY( 68,197)   
    DRY( 68,198)   DRY( 68,199)   DRY( 68,200)   DRY( 68,201)   DRY( 68,202)   
    DRY( 68,203)   DRY( 68,204)   DRY( 68,205)   DRY( 68,206)   DRY( 68,207)   
    DRY( 68,208)   DRY( 68,209)   DRY( 68,210)   DRY( 68,211)   DRY( 68,212)   
    DRY( 68,213)   DRY( 68,214)   DRY( 68,215)   DRY( 68,216)   DRY( 68,217)   
    DRY( 68,218)   DRY( 68,219)   DRY( 68,220)   DRY( 69,  1)   DRY( 69,  2)   
    DRY( 69,  3)   DRY( 69,  4)   DRY( 69,  5)   DRY( 69,  6)   DRY( 69,  7)   
    DRY( 69,  8)   DRY( 69,  9)   DRY( 69, 10)   DRY( 69, 11)   DRY( 69, 12)   
    DRY( 69, 13)   DRY( 69, 14)   DRY( 69, 15)   DRY( 69, 16)   DRY( 69, 17)   
    DRY( 69, 18)   DRY( 69, 19)   DRY( 69, 20)   DRY( 69, 21)   DRY( 69, 22)   
    DRY( 69, 23)   DRY( 69, 24)   DRY( 69, 25)   DRY( 69, 26)   DRY( 69, 27)   
    DRY( 69, 28)   DRY( 69, 29)   DRY( 69, 30)   DRY( 69, 31)   DRY( 69, 32)   
    DRY( 69, 33)   DRY( 69, 34)   DRY( 69, 35)   DRY( 69, 36)   DRY( 69, 37)   
    DRY( 69, 38)   DRY( 69, 39)   DRY( 69, 40)   DRY( 69, 41)   DRY( 69, 42)   
    DRY( 69, 43)   DRY( 69, 44)   DRY( 69, 45)   DRY( 69, 46)   DRY( 69, 47)   
    DRY( 69, 48)   DRY( 69, 49)   DRY( 69, 50)   DRY( 69, 51)   DRY( 69, 52)   
    DRY( 69, 53)   DRY( 69, 54)   DRY( 69, 55)   DRY( 69, 56)   DRY( 69, 57)   
    DRY( 69, 58)   DRY( 69, 59)   DRY( 69, 60)   DRY( 69, 61)   DRY( 69, 62)   
    DRY( 69, 63)   DRY( 69, 64)   DRY( 69, 65)   DRY( 69, 66)   DRY( 69, 67)   
    DRY( 69, 68)   DRY( 69, 69)   DRY( 69, 70)   DRY( 69, 71)   DRY( 69, 72)   
    DRY( 69, 73)   DRY( 69, 74)   DRY( 69, 75)   DRY( 69, 76)   DRY( 69, 77)   
    DRY( 69, 78)   DRY( 69, 79)   DRY( 69, 80)   DRY( 69, 81)   DRY( 69, 82)   
    DRY( 69, 83)   DRY( 69, 84)   DRY( 69, 85)   DRY( 69, 86)   DRY( 69, 87)   
    DRY( 69, 88)   DRY( 69, 89)   DRY( 69, 90)   DRY( 69, 91)   DRY( 69, 92)   
    DRY( 69, 93)   DRY( 69, 94)   DRY( 69, 95)   DRY( 69, 96)   DRY( 69, 97)   
    DRY( 69, 98)   DRY( 69, 99)   DRY( 69,100)   DRY( 69,101)   DRY( 69,102)   
    DRY( 69,103)   DRY( 69,104)   DRY( 69,105)   DRY( 69,106)   DRY( 69,107)   
    DRY( 69,108)   DRY( 69,109)   DRY( 69,110)   DRY( 69,111)   DRY( 69,112)   
    DRY( 69,113)   DRY( 69,114)   DRY( 69,115)   DRY( 69,116)   DRY( 69,117)   
    DRY( 69,118)   DRY( 69,119)   DRY( 69,120)   DRY( 69,121)   DRY( 69,122)   
    DRY( 69,123)   DRY( 69,124)   DRY( 69,125)   DRY( 69,126)   DRY( 69,127)   
    DRY( 69,128)   DRY( 69,129)   DRY( 69,130)   DRY( 69,131)   DRY( 69,132)   
    DRY( 69,133)   DRY( 69,134)   DRY( 69,135)   DRY( 69,136)   DRY( 69,137)   
    DRY( 69,138)   DRY( 69,139)   DRY( 69,140)   DRY( 69,141)   DRY( 69,142)   
    DRY( 69,143)   DRY( 69,144)   DRY( 69,145)   DRY( 69,146)   DRY( 69,147)   
    DRY( 69,148)   DRY( 69,149)   DRY( 69,150)   DRY( 69,151)   DRY( 69,152)   
    DRY( 69,153)   DRY( 69,154)   DRY( 69,155)   DRY( 69,156)   DRY( 69,157)   
    DRY( 69,158)   DRY( 69,159)   DRY( 69,160)   DRY( 69,161)   DRY( 69,162)   
    DRY( 69,163)   DRY( 69,164)   DRY( 69,165)   DRY( 69,166)   DRY( 69,167)   
    DRY( 69,168)   DRY( 69,169)   DRY( 69,170)   DRY( 69,171)   DRY( 69,172)   
    DRY( 69,173)   DRY( 69,174)   DRY( 69,175)   DRY( 69,176)   DRY( 69,177)   
    DRY( 69,178)   DRY( 69,179)   DRY( 69,180)   DRY( 69,181)   DRY( 69,182)   
    DRY( 69,183)   DRY( 69,184)   DRY( 69,185)   DRY( 69,186)   DRY( 69,187)   
    DRY( 69,188)   DRY( 69,189)   DRY( 69,190)   DRY( 69,191)   DRY( 69,192)   
    DRY( 69,193)   DRY( 69,194)   DRY( 69,195)   DRY( 69,196)   DRY( 69,197)   
    DRY( 69,198)   DRY( 69,199)   DRY( 69,200)   DRY( 69,201)   DRY( 69,202)   
    DRY( 69,203)   DRY( 69,204)   DRY( 69,205)   DRY( 69,206)   DRY( 69,207)   
    DRY( 69,208)   DRY( 69,209)   DRY( 69,210)   DRY( 69,211)   DRY( 69,212)   
    DRY( 69,213)   DRY( 69,214)   DRY( 69,215)   DRY( 69,216)   DRY( 69,217)   
    DRY( 69,218)   DRY( 69,219)   DRY( 69,220)   DRY( 70,  1)   DRY( 70,  2)   
    DRY( 70,  3)   DRY( 70,  4)   DRY( 70,  5)   DRY( 70,  6)   DRY( 70,  7)   
    DRY( 70,  8)   DRY( 70,  9)   DRY( 70, 10)   DRY( 70, 11)   DRY( 70, 12)   
    DRY( 70, 13)   DRY( 70, 14)   DRY( 70, 15)   DRY( 70, 16)   DRY( 70, 17)   
    DRY( 70, 18)   DRY( 70, 19)   DRY( 70, 20)   DRY( 70, 21)   DRY( 70, 22)   
    DRY( 70, 23)   DRY( 70, 24)   DRY( 70, 25)   DRY( 70, 26)   DRY( 70, 27)   
    DRY( 70, 28)   DRY( 70, 29)   DRY( 70, 30)   DRY( 70, 31)   DRY( 70, 32)   
    DRY( 70, 33)   DRY( 70, 34)   DRY( 70, 35)   DRY( 70, 36)   DRY( 70, 37)   
    DRY( 70, 38)   DRY( 70, 39)   DRY( 70, 40)   DRY( 70, 41)   DRY( 70, 42)   
    DRY( 70, 43)   DRY( 70, 44)   DRY( 70, 45)   DRY( 70, 46)   DRY( 70, 47)   
    DRY( 70, 48)   DRY( 70, 49)   DRY( 70, 50)   DRY( 70, 51)   DRY( 70, 52)   
    DRY( 70, 53)   DRY( 70, 54)   DRY( 70, 55)   DRY( 70, 56)   DRY( 70, 57)   
    DRY( 70, 58)   DRY( 70, 59)   DRY( 70, 60)   DRY( 70, 61)   DRY( 70, 62)   
    DRY( 70, 63)   DRY( 70, 64)   DRY( 70, 65)   DRY( 70, 66)   DRY( 70, 67)   
    DRY( 70, 68)   DRY( 70, 69)   DRY( 70, 70)   DRY( 70, 71)   DRY( 70, 72)   
    DRY( 70, 73)   DRY( 70, 74)   DRY( 70, 75)   DRY( 70, 76)   DRY( 70, 77)   
    DRY( 70, 78)   DRY( 70, 79)   DRY( 70, 80)   DRY( 70, 81)   DRY( 70, 82)   
    DRY( 70, 83)   DRY( 70, 84)   DRY( 70, 85)   DRY( 70, 86)   DRY( 70, 87)   
    DRY( 70, 88)   DRY( 70, 89)   DRY( 70, 90)   DRY( 70, 91)   DRY( 70, 92)   
    DRY( 70, 93)   DRY( 70, 94)   DRY( 70, 95)   DRY( 70, 96)   DRY( 70, 97)   
    DRY( 70, 98)   DRY( 70, 99)   DRY( 70,100)   DRY( 70,101)   DRY( 70,102)   
    DRY( 70,103)   DRY( 70,104)   DRY( 70,105)   DRY( 70,106)   DRY( 70,107)   
    DRY( 70,108)   DRY( 70,109)   DRY( 70,110)   DRY( 70,111)   DRY( 70,112)   
    DRY( 70,113)   DRY( 70,114)   DRY( 70,115)   DRY( 70,116)   DRY( 70,117)   
    DRY( 70,118)   DRY( 70,119)   DRY( 70,120)   DRY( 70,121)   DRY( 70,122)   
    DRY( 70,123)   DRY( 70,124)   DRY( 70,125)   DRY( 70,126)   DRY( 70,127)   
    DRY( 70,128)   DRY( 70,129)   DRY( 70,130)   DRY( 70,131)   DRY( 70,132)   
    DRY( 70,133)   DRY( 70,134)   DRY( 70,135)   DRY( 70,136)   DRY( 70,137)   
    DRY( 70,138)   DRY( 70,139)   DRY( 70,140)   DRY( 70,141)   DRY( 70,142)   
    DRY( 70,143)   DRY( 70,144)   DRY( 70,145)   DRY( 70,146)   DRY( 70,147)   
    DRY( 70,148)   DRY( 70,149)   DRY( 70,150)   DRY( 70,151)   DRY( 70,152)   
    DRY( 70,153)   DRY( 70,154)   DRY( 70,155)   DRY( 70,156)   DRY( 70,157)   
    DRY( 70,158)   DRY( 70,159)   DRY( 70,160)   DRY( 70,161)   DRY( 70,162)   
    DRY( 70,163)   DRY( 70,164)   DRY( 70,165)   DRY( 70,166)   DRY( 70,167)   
    DRY( 70,168)   DRY( 70,169)   DRY( 70,170)   DRY( 70,171)   DRY( 70,172)   
    DRY( 70,173)   DRY( 70,174)   DRY( 70,175)   DRY( 70,176)   DRY( 70,177)   
    DRY( 70,178)   DRY( 70,179)   DRY( 70,180)   DRY( 70,181)   DRY( 70,182)   
    DRY( 70,183)   DRY( 70,184)   DRY( 70,185)   DRY( 70,186)   DRY( 70,187)   
    DRY( 70,188)   DRY( 70,189)   DRY( 70,190)   DRY( 70,191)   DRY( 70,192)   
    DRY( 70,193)   DRY( 70,194)   DRY( 70,195)   DRY( 70,196)   DRY( 70,197)   
    DRY( 70,198)   DRY( 70,199)   DRY( 70,200)   DRY( 70,201)   DRY( 70,202)   
    DRY( 70,203)   DRY( 70,204)   DRY( 70,205)   DRY( 70,206)   DRY( 70,207)   
    DRY( 70,208)   DRY( 70,209)   DRY( 70,210)   DRY( 70,211)   DRY( 70,212)   
    DRY( 70,213)   DRY( 70,214)   DRY( 70,215)   DRY( 70,216)   DRY( 70,217)   
    DRY( 70,218)   DRY( 70,219)   DRY( 70,220)   DRY( 71,  1)   DRY( 71,  2)   
    DRY( 71,  3)   DRY( 71,  4)   DRY( 71,  5)   DRY( 71,  6)   DRY( 71,  7)   
    DRY( 71,  8)   DRY( 71,  9)   DRY( 71, 10)   DRY( 71, 11)   DRY( 71, 12)   
    DRY( 71, 13)   DRY( 71, 14)   DRY( 71, 15)   DRY( 71, 16)   DRY( 71, 17)   
    DRY( 71, 18)   DRY( 71, 19)   DRY( 71, 20)   DRY( 71, 21)   DRY( 71, 22)   
    DRY( 71, 23)   DRY( 71, 24)   DRY( 71, 25)   DRY( 71, 26)   DRY( 71, 27)   
    DRY( 71, 28)   DRY( 71, 29)   DRY( 71, 30)   DRY( 71, 31)   DRY( 71, 32)   
    DRY( 71, 33)   DRY( 71, 34)   DRY( 71, 35)   DRY( 71, 36)   DRY( 71, 37)   
    DRY( 71, 38)   DRY( 71, 39)   DRY( 71, 40)   DRY( 71, 41)   DRY( 71, 42)   
    DRY( 71, 43)   DRY( 71, 44)   DRY( 71, 45)   DRY( 71, 46)   DRY( 71, 47)   
    DRY( 71, 48)   DRY( 71, 49)   DRY( 71, 50)   DRY( 71, 51)   DRY( 71, 52)   
    DRY( 71, 53)   DRY( 71, 54)   DRY( 71, 55)   DRY( 71, 56)   DRY( 71, 57)   
    DRY( 71, 58)   DRY( 71, 59)   DRY( 71, 60)   DRY( 71, 61)   DRY( 71, 62)   
    DRY( 71, 63)   DRY( 71, 64)   DRY( 71, 65)   DRY( 71, 66)   DRY( 71, 67)   
    DRY( 71, 68)   DRY( 71, 69)   DRY( 71, 70)   DRY( 71, 71)   DRY( 71, 72)   
    DRY( 71, 73)   DRY( 71, 74)   DRY( 71, 75)   DRY( 71, 76)   DRY( 71, 77)   
    DRY( 71, 78)   DRY( 71, 79)   DRY( 71, 80)   DRY( 71, 81)   DRY( 71, 82)   
    DRY( 71, 83)   DRY( 71, 84)   DRY( 71, 85)   DRY( 71, 86)   DRY( 71, 87)   
    DRY( 71, 88)   DRY( 71, 89)   DRY( 71, 90)   DRY( 71, 91)   DRY( 71, 92)   
    DRY( 71, 93)   DRY( 71, 94)   DRY( 71, 95)   DRY( 71, 96)   DRY( 71, 97)   
    DRY( 71, 98)   DRY( 71, 99)   DRY( 71,100)   DRY( 71,101)   DRY( 71,102)   
    DRY( 71,103)   DRY( 71,104)   DRY( 71,105)   DRY( 71,106)   DRY( 71,107)   
    DRY( 71,108)   DRY( 71,109)   DRY( 71,110)   DRY( 71,111)   DRY( 71,112)   
    DRY( 71,113)   DRY( 71,114)   DRY( 71,115)   DRY( 71,116)   DRY( 71,117)   
    DRY( 71,118)   DRY( 71,119)   DRY( 71,120)   DRY( 71,121)   DRY( 71,122)   
    DRY( 71,123)   DRY( 71,124)   DRY( 71,125)   DRY( 71,126)   DRY( 71,127)   
    DRY( 71,128)   DRY( 71,129)   DRY( 71,130)   DRY( 71,131)   DRY( 71,132)   
    DRY( 71,133)   DRY( 71,134)   DRY( 71,135)   DRY( 71,136)   DRY( 71,137)   
    DRY( 71,138)   DRY( 71,139)   DRY( 71,140)   DRY( 71,141)   DRY( 71,142)   
    DRY( 71,143)   DRY( 71,144)   DRY( 71,145)   DRY( 71,146)   DRY( 71,147)   
    DRY( 71,148)   DRY( 71,149)   DRY( 71,150)   DRY( 71,151)   DRY( 71,152)   
    DRY( 71,153)   DRY( 71,154)   DRY( 71,155)   DRY( 71,156)   DRY( 71,157)   
    DRY( 71,158)   DRY( 71,159)   DRY( 71,160)   DRY( 71,161)   DRY( 71,162)   
    DRY( 71,163)   DRY( 71,164)   DRY( 71,165)   DRY( 71,166)   DRY( 71,167)   
    DRY( 71,168)   DRY( 71,169)   DRY( 71,170)   DRY( 71,171)   DRY( 71,172)   
    DRY( 71,173)   DRY( 71,174)   DRY( 71,175)   DRY( 71,176)   DRY( 71,177)   
    DRY( 71,178)   DRY( 71,179)   DRY( 71,180)   DRY( 71,181)   DRY( 71,182)   
    DRY( 71,183)   DRY( 71,184)   DRY( 71,185)   DRY( 71,186)   DRY( 71,187)   
    DRY( 71,188)   DRY( 71,189)   DRY( 71,190)   DRY( 71,191)   DRY( 71,192)   
    DRY( 71,193)   DRY( 71,194)   DRY( 71,195)   DRY( 71,196)   DRY( 71,197)   
    DRY( 71,198)   DRY( 71,199)   DRY( 71,200)   DRY( 71,201)   DRY( 71,202)   
    DRY( 71,203)   DRY( 71,204)   DRY( 71,205)   DRY( 71,206)   DRY( 71,207)   
    DRY( 71,208)   DRY( 71,209)   DRY( 71,210)   DRY( 71,211)   DRY( 71,212)   
    DRY( 71,213)   DRY( 71,214)   DRY( 71,215)   DRY( 71,216)   DRY( 71,217)   
    DRY( 71,218)   DRY( 71,219)   DRY( 71,220)   DRY( 72, 17)   DRY( 72, 18)   
    DRY( 72, 19)   DRY( 72, 20)   DRY( 72, 21)   DRY( 72, 22)   DRY( 72, 23)   
    DRY( 72, 24)   DRY( 72, 25)   DRY( 72, 26)   DRY( 72, 27)   DRY( 72, 51)   
    DRY( 72, 52)   DRY( 72, 53)   DRY( 72, 54)   DRY( 72, 55)   DRY( 72, 56)   
    DRY( 72, 57)   DRY( 72, 58)   DRY( 72, 59)   DRY( 72, 60)   DRY( 72, 61)   
    DRY( 72, 62)   DRY( 72, 63)   DRY( 72, 64)   DRY( 72, 65)   DRY( 72, 66)   
    DRY( 72, 67)   DRY( 72, 68)   DRY( 72, 69)   DRY( 72, 70)   DRY( 72, 71)   
    DRY( 72, 72)   DRY( 72, 73)   DRY( 72, 74)   DRY( 72, 75)   DRY( 72, 76)   
    DRY( 72, 77)   DRY( 72, 78)   DRY( 72, 79)   DRY( 72, 80)   DRY( 72, 81)   
    DRY( 72, 82)   DRY( 72, 83)   DRY( 72, 84)   DRY( 72, 85)   DRY( 72, 86)   
    DRY( 72, 87)   DRY( 72, 88)   DRY( 72, 89)   DRY( 72, 90)   DRY( 72, 91)   
    DRY( 72, 92)   DRY( 72, 93)   DRY( 72, 94)   DRY( 72, 95)   DRY( 72, 96)   
    DRY( 72, 97)   DRY( 72, 98)   DRY( 72, 99)   DRY( 72,100)   DRY( 72,101)   
    DRY( 72,102)   DRY( 72,103)   DRY( 72,104)   DRY( 72,105)   DRY( 72,106)   
    DRY( 72,107)   DRY( 72,108)   DRY( 72,109)   DRY( 72,110)   DRY( 72,111)   
    DRY( 72,112)   DRY( 72,113)   DRY( 72,114)   DRY( 72,115)   DRY( 72,116)   
    DRY( 72,117)   DRY( 72,118)   DRY( 72,119)   DRY( 72,120)   DRY( 72,121)   
    DRY( 72,122)   DRY( 72,123)   DRY( 72,124)   DRY( 72,125)   DRY( 72,126)   
    DRY( 72,127)   DRY( 72,128)   DRY( 72,129)   DRY( 72,130)   DRY( 72,131)   
    DRY( 72,132)   DRY( 72,133)   DRY( 72,134)   DRY( 72,135)   DRY( 72,136)   
    DRY( 72,137)   DRY( 72,138)   DRY( 72,139)   DRY( 72,140)   DRY( 72,141)   
    DRY( 72,142)   DRY( 72,143)   DRY( 72,144)   DRY( 72,145)   DRY( 72,146)   
    DRY( 72,147)   DRY( 72,148)   DRY( 72,149)   DRY( 72,150)   DRY( 72,151)   
    DRY( 72,152)   DRY( 72,153)   DRY( 72,154)   DRY( 72,155)   DRY( 72,156)   
    DRY( 72,157)   DRY( 72,158)   DRY( 72,159)   DRY( 72,160)   DRY( 72,161)   
    DRY( 72,162)   DRY( 72,163)   DRY( 72,164)   DRY( 72,165)   DRY( 72,166)   
    DRY( 72,167)   DRY( 72,168)   DRY( 72,169)   DRY( 72,170)   DRY( 72,171)   
    DRY( 72,172)   DRY( 72,173)   DRY( 72,174)   DRY( 72,175)   DRY( 72,176)   
    DRY( 72,177)   DRY( 72,178)   DRY( 72,179)   DRY( 72,180)   DRY( 72,181)   
    DRY( 72,182)   DRY( 72,183)   DRY( 72,184)   DRY( 72,185)   DRY( 72,186)   
    DRY( 72,187)   DRY( 72,188)   DRY( 72,189)   DRY( 72,190)   DRY( 72,191)   
    DRY( 72,192)   DRY( 72,193)   DRY( 72,194)   DRY( 72,195)   DRY( 72,196)   
    DRY( 72,197)   DRY( 72,198)   DRY( 72,199)   DRY( 72,200)   DRY( 72,201)   
    DRY( 72,202)   DRY( 72,203)   DRY( 72,204)   DRY( 72,205)   DRY( 72,206)   
    DRY( 72,207)   DRY( 72,208)   DRY( 72,209)   DRY( 72,210)   DRY( 72,211)   
    DRY( 72,212)   DRY( 72,213)   DRY( 72,214)   DRY( 72,215)   DRY( 72,216)   
    DRY( 72,217)   DRY( 72,218)   DRY( 72,219)   DRY( 72,220)   DRY( 73,118)   
    DRY( 73,119)   DRY( 73,120)   DRY( 73,121)   DRY( 73,122)   DRY( 73,123)   
    DRY( 73,124)   DRY( 73,125)   DRY( 73,126)   DRY( 73,127)   DRY( 73,128)   
    DRY( 73,129)   DRY( 73,130)   DRY( 73,131)   DRY( 73,132)   DRY( 73,133)   
    DRY( 73,134)   DRY( 73,135)   DRY( 73,136)   DRY( 73,137)   DRY( 73,138)   
    DRY( 73,139)   DRY( 73,140)   DRY( 73,141)   DRY( 73,142)   DRY( 73,143)   
    DRY( 73,144)   DRY( 73,145)   DRY( 73,146)   DRY( 73,147)   DRY( 73,148)   
    DRY( 73,149)   DRY( 73,150)   DRY( 73,151)   DRY( 73,152)   DRY( 73,153)   
    DRY( 73,154)   DRY( 73,155)   DRY( 73,156)   DRY( 73,157)   DRY( 73,158)   
    DRY( 73,159)   DRY( 73,160)   DRY( 73,161)   DRY( 73,162)   DRY( 73,163)   
    DRY( 73,164)   DRY( 73,165)   DRY( 73,166)   DRY( 73,167)   DRY( 73,168)   
    DRY( 73,169)   DRY( 73,170)   DRY( 73,171)   DRY( 73,172)   DRY( 73,173)   
    DRY( 73,174)   DRY( 73,175)   DRY( 73,176)   DRY( 73,177)   DRY( 73,178)   
    DRY( 73,179)   DRY( 73,180)   DRY( 73,181)   DRY( 73,182)   DRY( 73,183)   
    DRY( 73,184)   DRY( 73,185)   DRY( 73,186)   DRY( 73,187)   DRY( 73,188)   
    DRY( 73,189)   DRY( 73,190)   DRY( 73,191)   DRY( 73,192)   DRY( 73,193)   
    DRY( 73,194)   DRY( 73,195)   DRY( 73,196)   DRY( 73,197)   DRY( 73,198)   
    DRY( 73,199)   DRY( 73,200)   DRY( 73,201)   DRY( 73,202)   DRY( 73,203)   
    DRY( 73,204)   DRY( 73,205)   DRY( 73,206)   DRY( 73,207)   DRY( 73,208)   
    DRY( 73,209)   DRY( 73,210)   DRY( 73,211)   DRY( 73,212)   DRY( 73,213)   
    DRY( 73,214)   DRY( 73,215)   DRY( 73,216)   DRY( 73,217)   DRY( 73,218)   
    DRY( 73,219)   DRY( 73,220)   DRY( 74,140)   DRY( 74,141)   DRY( 74,142)   
    DRY( 74,143)   DRY( 74,144)   DRY( 74,145)   DRY( 74,146)   DRY( 74,147)   
    DRY( 74,148)   DRY( 74,149)   DRY( 74,150)   DRY( 74,151)   DRY( 74,152)   
    DRY( 74,153)   DRY( 74,154)   DRY( 74,155)   DRY( 74,156)   DRY( 74,157)   
    DRY( 74,158)   DRY( 74,159)   DRY( 74,160)   DRY( 74,161)   DRY( 74,162)   
    DRY( 74,163)   DRY( 74,164)   DRY( 74,165)   DRY( 74,166)   DRY( 74,167)   
    DRY( 74,168)   DRY( 74,169)   DRY( 74,170)   DRY( 74,171)   DRY( 74,172)   
    DRY( 74,173)   DRY( 74,174)   DRY( 74,175)   DRY( 74,176)   DRY( 74,177)   
    DRY( 74,178)   DRY( 74,179)   DRY( 74,180)   DRY( 74,181)   DRY( 74,182)   
    DRY( 74,183)   DRY( 74,184)   DRY( 74,185)   DRY( 74,186)   DRY( 74,187)   
    DRY( 74,188)   DRY( 74,189)   DRY( 74,190)   DRY( 74,191)   DRY( 74,192)   
    DRY( 74,193)   DRY( 74,194)   DRY( 74,195)   DRY( 74,196)   DRY( 74,197)   
    DRY( 74,198)   DRY( 74,199)   DRY( 74,200)   DRY( 74,201)   DRY( 74,202)   
    DRY( 74,203)   DRY( 74,204)   DRY( 74,205)   DRY( 74,206)   DRY( 74,207)   
    DRY( 74,208)   DRY( 74,209)   DRY( 74,210)   DRY( 74,211)   DRY( 74,212)   
    DRY( 74,213)   DRY( 74,214)   DRY( 74,215)   DRY( 74,216)   DRY( 74,217)   
    DRY( 74,218)   DRY( 74,219)   DRY( 74,220)   

 CELL CONVERSIONS FOR ITER.=  4  LAYER= 25  STEP=  1  PERIOD=   1   (ROW,COL)
    DRY( 67,  1)   DRY( 67,  2)   DRY( 67,  3)   DRY( 67,  4)   DRY( 67,  5)   
    DRY( 67,  6)   DRY( 67,  7)   DRY( 67,  8)   DRY( 67,  9)   DRY( 67, 10)   
    DRY( 67, 11)   DRY( 67, 12)   DRY( 67, 13)   DRY( 67, 14)   DRY( 67, 15)   
    DRY( 67, 16)   DRY( 67, 17)   DRY( 67, 18)   DRY( 67, 19)   DRY( 67, 20)   
    DRY( 67, 21)   DRY( 67, 22)   DRY( 67, 23)   DRY( 67, 24)   DRY( 67, 25)   
    DRY( 67, 26)   DRY( 67, 27)   DRY( 67, 28)   DRY( 67, 29)   DRY( 67, 30)   
    DRY( 67, 31)   DRY( 67, 32)   DRY( 67, 33)   DRY( 67, 34)   DRY( 67, 35)   
    DRY( 67, 36)   DRY( 67, 37)   DRY( 67, 38)   DRY( 67, 39)   DRY( 67, 40)   
    DRY( 67, 41)   DRY( 67, 42)   DRY( 67, 43)   DRY( 67, 44)   DRY( 67, 45)   
    DRY( 67, 46)   DRY( 67, 47)   DRY( 67, 48)   DRY( 67, 49)   DRY( 67, 50)   
    DRY( 67, 51)   DRY( 67, 52)   DRY( 67, 53)   DRY( 67, 54)   DRY( 67, 55)   
    DRY( 67, 56)   DRY( 67, 57)   DRY( 67, 58)   DRY( 67, 59)   DRY( 67, 60)   
    DRY( 67, 61)   DRY( 67, 62)   DRY( 67, 63)   DRY( 67, 64)   DRY( 67, 65)   
    DRY( 67, 66)   DRY( 67, 67)   DRY( 67, 68)   DRY( 67, 69)   DRY( 67, 70)   
    DRY( 67, 71)   DRY( 67, 72)   DRY( 67, 73)   DRY( 67, 74)   DRY( 67, 75)   
    DRY( 67, 76)   DRY( 67, 77)   DRY( 67, 78)   DRY( 67, 79)   DRY( 67, 80)   
    DRY( 67, 81)   DRY( 67, 82)   DRY( 67, 83)   DRY( 67, 84)   DRY( 67, 85)   
    DRY( 67, 86)   DRY( 67, 87)   DRY( 67, 88)   DRY( 67, 89)   DRY( 67, 90)   
    DRY( 67, 91)   DRY( 67, 92)   DRY( 67, 93)   DRY( 67, 94)   DRY( 67, 95)   
    DRY( 67, 96)   DRY( 67, 97)   DRY( 67, 98)   DRY( 67, 99)   DRY( 67,100)   
    DRY( 67,101)   DRY( 67,102)   DRY( 67,103)   DRY( 67,104)   DRY( 67,105)   
    DRY( 67,106)   DRY( 67,107)   DRY( 67,108)   DRY( 67,109)   DRY( 67,110)   
    DRY( 67,111)   DRY( 67,112)   DRY( 67,113)   DRY( 67,114)   DRY( 67,115)   
    DRY( 67,116)   DRY( 67,117)   DRY( 67,118)   DRY( 67,119)   DRY( 67,120)   
    DRY( 67,121)   DRY( 67,122)   DRY( 67,123)   DRY( 67,124)   DRY( 67,125)   
    DRY( 67,126)   DRY( 67,127)   DRY( 67,128)   DRY( 67,129)   DRY( 67,130)   
    DRY( 67,131)   DRY( 67,132)   DRY( 67,133)   DRY( 67,134)   DRY( 67,135)   
    DRY( 68,  1)   DRY( 68,  2)   DRY( 68,  3)   DRY( 68,  4)   DRY( 68,  5)   
    DRY( 68,  6)   DRY( 68,  7)   DRY( 68,  8)   DRY( 68,  9)   DRY( 68, 10)   
    DRY( 68, 11)   DRY( 68, 12)   DRY( 68, 13)   DRY( 68, 14)   DRY( 68, 15)   
    DRY( 68, 16)   DRY( 68, 17)   DRY( 68, 18)   DRY( 68, 19)   DRY( 68, 20)   
    DRY( 68, 21)   DRY( 68, 22)   DRY( 68, 23)   DRY( 68, 24)   DRY( 68, 25)   
    DRY( 68, 26)   DRY( 68, 27)   DRY( 68, 28)   DRY( 68, 29)   DRY( 68, 30)   
    DRY( 68, 31)   DRY( 68, 32)   DRY( 68, 33)   DRY( 68, 34)   DRY( 68, 35)   
    DRY( 68, 36)   DRY( 68, 37)   DRY( 68, 38)   DRY( 68, 39)   DRY( 68, 40)   
    DRY( 68, 41)   DRY( 68, 42)   DRY( 68, 43)   DRY( 68, 44)   DRY( 68, 45)   
    DRY( 68, 46)   DRY( 68, 47)   DRY( 68, 48)   DRY( 68, 49)   DRY( 68, 50)   
    DRY( 68, 51)   DRY( 68, 52)   DRY( 68, 53)   DRY( 68, 54)   DRY( 68, 55)   
    DRY( 68, 56)   DRY( 68, 57)   DRY( 68, 58)   DRY( 68, 59)   DRY( 68, 60)   
    DRY( 68, 61)   DRY( 68, 62)   DRY( 68, 63)   DRY( 68, 64)   DRY( 68, 65)   
    DRY( 68, 66)   DRY( 68, 67)   DRY( 68, 68)   DRY( 68, 69)   DRY( 68, 70)   
    DRY( 68, 71)   DRY( 68, 72)   DRY( 68, 73)   DRY( 68, 74)   DRY( 68, 75)   
    DRY( 68, 76)   DRY( 68, 77)   DRY( 68, 78)   DRY( 68, 79)   DRY( 68, 80)   
    DRY( 68, 81)   DRY( 68, 82)   DRY( 68, 83)   DRY( 68, 84)   DRY( 68, 85)   
    DRY( 68, 86)   DRY( 68, 87)   DRY( 68, 88)   DRY( 68, 89)   DRY( 68, 90)   
    DRY( 68, 91)   DRY( 68, 92)   DRY( 68, 93)   DRY( 68, 94)   DRY( 68, 95)   
    DRY( 68, 96)   DRY( 68, 97)   DRY( 68, 98)   DRY( 68, 99)   DRY( 68,100)   
    DRY( 68,101)   DRY( 68,102)   DRY( 68,103)   DRY( 68,104)   DRY( 68,105)   
    DRY( 68,106)   DRY( 68,107)   DRY( 68,108)   DRY( 68,109)   DRY( 68,110)   
    DRY( 68,111)   DRY( 68,112)   DRY( 68,113)   DRY( 68,114)   DRY( 68,115)   
    DRY( 68,116)   DRY( 68,117)   DRY( 68,118)   DRY( 68,119)   DRY( 68,120)   
    DRY( 68,121)   DRY( 68,122)   DRY( 68,123)   DRY( 68,124)   DRY( 68,125)   
    DRY( 68,126)   DRY( 68,127)   DRY( 68,128)   DRY( 68,129)   DRY( 68,130)   
    DRY( 68,131)   DRY( 68,132)   DRY( 68,133)   DRY( 68,134)   DRY( 68,135)   
    DRY( 68,136)   DRY( 68,137)   DRY( 68,138)   DRY( 68,139)   DRY( 68,140)   
    DRY( 68,141)   DRY( 68,142)   DRY( 68,143)   DRY( 68,144)   DRY( 68,145)   
    DRY( 68,146)   DRY( 68,147)   DRY( 68,148)   DRY( 68,149)   DRY( 68,150)   
    DRY( 68,151)   DRY( 68,152)   DRY( 68,153)   DRY( 68,154)   DRY( 68,155)   
    DRY( 68,156)   DRY( 68,157)   DRY( 68,158)   DRY( 68,159)   DRY( 68,160)   
    DRY( 68,161)   DRY( 68,162)   DRY( 68,163)   DRY( 68,164)   DRY( 68,165)   
    DRY( 68,166)   DRY( 68,167)   DRY( 68,168)   DRY( 68,169)   DRY( 68,170)   
    DRY( 68,171)   DRY( 68,172)   DRY( 68,173)   DRY( 68,174)   DRY( 68,175)   
    DRY( 68,176)   DRY( 68,177)   DRY( 68,178)   DRY( 68,179)   DRY( 68,180)   
    DRY( 68,181)   DRY( 68,182)   DRY( 68,183)   DRY( 68,184)   DRY( 68,185)   
    DRY( 68,186)   DRY( 68,187)   DRY( 68,188)   DRY( 68,189)   DRY( 68,190)   
    DRY( 68,191)   DRY( 68,192)   DRY( 68,193)   DRY( 68,194)   DRY( 68,195)   
    DRY( 68,196)   DRY( 68,197)   DRY( 68,198)   DRY( 68,199)   DRY( 68,200)   
    DRY( 68,201)   DRY( 68,202)   DRY( 68,203)   DRY( 68,204)   DRY( 68,205)   
    DRY( 68,206)   DRY( 68,207)   DRY( 68,208)   DRY( 68,209)   DRY( 68,210)   
    DRY( 68,211)   DRY( 68,212)   DRY( 68,213)   DRY( 68,214)   DRY( 68,215)   
    DRY( 68,216)   DRY( 68,217)   DRY( 68,218)   DRY( 68,219)   DRY( 68,220)   
    DRY( 69,  1)   DRY( 69,  2)   DRY( 69,  3)   DRY( 69,  4)   DRY( 69,  5)   
    DRY( 69,  6)   DRY( 69,  7)   DRY( 69,  8)   DRY( 69,  9)   DRY( 69, 10)   
    DRY( 69, 11)   DRY( 69, 12)   DRY( 69, 13)   DRY( 69, 14)   DRY( 69, 15)   
    DRY( 69, 16)   DRY( 69, 17)   DRY( 69, 18)   DRY( 69, 19)   DRY( 69, 20)   
    DRY( 69, 21)   DRY( 69, 22)   DRY( 69, 23)   DRY( 69, 24)   DRY( 69, 25)   
    DRY( 69, 26)   DRY( 69, 27)   DRY( 69, 28)   DRY( 69, 29)   DRY( 69, 30)   
    DRY( 69, 31)   DRY( 69, 32)   DRY( 69, 33)   DRY( 69, 34)   DRY( 69, 35)   
    DRY( 69, 36)   DRY( 69, 37)   DRY( 69, 38)   DRY( 69, 39)   DRY( 69, 40)   
    DRY( 69, 41)   DRY( 69, 42)   DRY( 69, 43)   DRY( 69, 44)   DRY( 69, 45)   
    DRY( 69, 46)   DRY( 69, 47)   DRY( 69, 48)   DRY( 69, 49)   DRY( 69, 50)   
    DRY( 69, 51)   DRY( 69, 52)   DRY( 69, 53)   DRY( 69, 54)   DRY( 69, 55)   
    DRY( 69, 56)   DRY( 69, 57)   DRY( 69, 58)   DRY( 69, 59)   DRY( 69, 60)   
    DRY( 69, 61)   DRY( 69, 62)   DRY( 69, 63)   DRY( 69, 64)   DRY( 69, 65)   
    DRY( 69, 66)   DRY( 69, 67)   DRY( 69, 68)   DRY( 69, 69)   DRY( 69, 70)   
    DRY( 69, 71)   DRY( 69, 72)   DRY( 69, 73)   DRY( 69, 74)   DRY( 69, 75)   
    DRY( 69, 76)   DRY( 69, 77)   DRY( 69, 78)   DRY( 69, 79)   DRY( 69, 80)   
    DRY( 69, 81)   DRY( 69, 82)   DRY( 69, 83)   DRY( 69, 84)   DRY( 69, 85)   
    DRY( 69, 86)   DRY( 69, 87)   DRY( 69, 88)   DRY( 69, 89)   DRY( 69, 90)   
    DRY( 69, 91)   DRY( 69, 92)   DRY( 69, 93)   DRY( 69, 94)   DRY( 69, 95)   
    DRY( 69, 96)   DRY( 69, 97)   DRY( 69, 98)   DRY( 69, 99)   DRY( 69,100)   
    DRY( 69,101)   DRY( 69,102)   DRY( 69,103)   DRY( 69,104)   DRY( 69,105)   
    DRY( 69,106)   DRY( 69,107)   DRY( 69,108)   DRY( 69,109)   DRY( 69,110)   
    DRY( 69,111)   DRY( 69,112)   DRY( 69,113)   DRY( 69,114)   DRY( 69,115)   
    DRY( 69,116)   DRY( 69,117)   DRY( 69,118)   DRY( 69,119)   DRY( 69,120)   
    DRY( 69,121)   DRY( 69,122)   DRY( 69,123)   DRY( 69,124)   DRY( 69,125)   
    DRY( 69,126)   DRY( 69,127)   DRY( 69,128)   DRY( 69,129)   DRY( 69,130)   
    DRY( 69,131)   DRY( 69,132)   DRY( 69,133)   DRY( 69,134)   DRY( 69,135)   
    DRY( 69,136)   DRY( 69,137)   DRY( 69,138)   DRY( 69,139)   DRY( 69,140)   
    DRY( 69,141)   DRY( 69,142)   DRY( 69,143)   DRY( 69,144)   DRY( 69,145)   
    DRY( 69,146)   DRY( 69,147)   DRY( 69,148)   DRY( 69,149)   DRY( 69,150)   
    DRY( 69,151)   DRY( 69,152)   DRY( 69,153)   DRY( 69,154)   DRY( 69,155)   
    DRY( 69,156)   DRY( 69,157)   DRY( 69,158)   DRY( 69,159)   DRY( 69,160)   
    DRY( 69,161)   DRY( 69,162)   DRY( 69,163)   DRY( 69,164)   DRY( 69,165)   
    DRY( 69,166)   DRY( 69,167)   DRY( 69,168)   DRY( 69,169)   DRY( 69,170)   
    DRY( 69,171)   DRY( 69,172)   DRY( 69,173)   DRY( 69,174)   DRY( 69,175)   
    DRY( 69,176)   DRY( 69,177)   DRY( 69,178)   DRY( 69,179)   DRY( 69,180)   
    DRY( 69,181)   DRY( 69,182)   DRY( 69,183)   DRY( 69,184)   DRY( 69,185)   
    DRY( 69,186)   DRY( 69,187)   DRY( 69,188)   DRY( 69,189)   DRY( 69,190)   
    DRY( 69,191)   DRY( 69,192)   DRY( 69,193)   DRY( 69,194)   DRY( 69,195)   
    DRY( 69,196)   DRY( 69,197)   DRY( 69,198)   DRY( 69,199)   DRY( 69,200)   
    DRY( 69,201)   DRY( 69,202)   DRY( 69,203)   DRY( 69,204)   DRY( 69,205)   
    DRY( 69,206)   DRY( 69,207)   DRY( 69,208)   DRY( 69,209)   DRY( 69,210)   
    DRY( 69,211)   DRY( 69,212)   DRY( 69,213)   DRY( 69,214)   DRY( 69,215)   
    DRY( 69,216)   DRY( 69,217)   DRY( 69,218)   DRY( 69,219)   DRY( 69,220)   
    DRY( 70,  1)   DRY( 70,  2)   DRY( 70,  3)   DRY( 70,  4)   DRY( 70,  5)   
    DRY( 70,  6)   DRY( 70,  7)   DRY( 70,  8)   DRY( 70,  9)   DRY( 70, 10)   
    DRY( 70, 11)   DRY( 70, 12)   DRY( 70, 13)   DRY( 70, 14)   DRY( 70, 15)   
    DRY( 70, 16)   DRY( 70, 17)   DRY( 70, 18)   DRY( 70, 19)   DRY( 70, 20)   
    DRY( 70, 21)   DRY( 70, 22)   DRY( 70, 23)   DRY( 70, 24)   DRY( 70, 25)   
    DRY( 70, 26)   DRY( 70, 27)   DRY( 70, 28)   DRY( 70, 29)   DRY( 70, 30)   
    DRY( 70, 31)   DRY( 70, 32)   DRY( 70, 33)   DRY( 70, 34)   DRY( 70, 35)   
    DRY( 70, 36)   DRY( 70, 37)   DRY( 70, 38)   DRY( 70, 39)   DRY( 70, 40)   
    DRY( 70, 41)   DRY( 70, 42)   DRY( 70, 43)   DRY( 70, 44)   DRY( 70, 45)   
    DRY( 70, 46)   DRY( 70, 47)   DRY( 70, 48)   DRY( 70, 49)   DRY( 70, 50)   
    DRY( 70, 51)   DRY( 70, 52)   DRY( 70, 53)   DRY( 70, 54)   DRY( 70, 55)   
    DRY( 70, 56)   DRY( 70, 57)   DRY( 70, 58)   DRY( 70, 59)   DRY( 70, 60)   
    DRY( 70, 61)   DRY( 70, 62)   DRY( 70, 63)   DRY( 70, 64)   DRY( 70, 65)   
    DRY( 70, 66)   DRY( 70, 67)   DRY( 70, 68)   DRY( 70, 69)   DRY( 70, 70)   
    DRY( 70, 71)   DRY( 70, 72)   DRY( 70, 73)   DRY( 70, 74)   DRY( 70, 75)   
    DRY( 70, 76)   DRY( 70, 77)   DRY( 70, 78)   DRY( 70, 79)   DRY( 70, 80)   
    DRY( 70, 81)   DRY( 70, 82)   DRY( 70, 83)   DRY( 70, 84)   DRY( 70, 85)   
    DRY( 70, 86)   DRY( 70, 87)   DRY( 70, 88)   DRY( 70, 89)   DRY( 70, 90)   
    DRY( 70, 91)   DRY( 70, 92)   DRY( 70, 93)   DRY( 70, 94)   DRY( 70, 95)   
    DRY( 70, 96)   DRY( 70, 97)   DRY( 70, 98)   DRY( 70, 99)   DRY( 70,100)   
    DRY( 70,101)   DRY( 70,102)   DRY( 70,103)   DRY( 70,104)   DRY( 70,105)   
    DRY( 70,106)   DRY( 70,107)   DRY( 70,108)   DRY( 70,109)   DRY( 70,110)   
    DRY( 70,111)   DRY( 70,112)   DRY( 70,113)   DRY( 70,114)   DRY( 70,115)   
    DRY( 70,116)   DRY( 70,117)   DRY( 70,118)   DRY( 70,119)   DRY( 70,120)   
    DRY( 70,121)   DRY( 70,122)   DRY( 70,123)   DRY( 70,124)   DRY( 70,125)   
    DRY( 70,126)   DRY( 70,127)   DRY( 70,128)   DRY( 70,129)   DRY( 70,130)   
    DRY( 70,131)   DRY( 70,132)   DRY( 70,133)   DRY( 70,134)   DRY( 70,135)   
    DRY( 70,136)   DRY( 70,137)   DRY( 70,138)   DRY( 70,139)   DRY( 70,140)   
    DRY( 70,141)   DRY( 70,142)   DRY( 70,143)   DRY( 70,144)   DRY( 70,145)   
    DRY( 70,146)   DRY( 70,147)   DRY( 70,148)   DRY( 70,149)   DRY( 70,150)   
    DRY( 70,151)   DRY( 70,152)   DRY( 70,153)   DRY( 70,154)   DRY( 70,155)   
    DRY( 70,156)   DRY( 70,157)   DRY( 70,158)   DRY( 70,159)   DRY( 70,160)   
    DRY( 70,161)   DRY( 70,162)   DRY( 70,163)   DRY( 70,164)   DRY( 70,165)   
    DRY( 70,166)   DRY( 70,167)   DRY( 70,168)   DRY( 70,169)   DRY( 70,170)   
    DRY( 70,171)   DRY( 70,172)   DRY( 70,173)   DRY( 70,174)   DRY( 70,175)   
    DRY( 70,176)   DRY( 70,177)   DRY( 70,178)   DRY( 70,179)   DRY( 70,180)   
    DRY( 70,181)   DRY( 70,182)   DRY( 70,183)   DRY( 70,184)   DRY( 70,185)   
    DRY( 70,186)   DRY( 70,187)   DRY( 70,188)   DRY( 70,189)   DRY( 70,190)   
    DRY( 70,191)   DRY( 70,192)   DRY( 70,193)   DRY( 70,194)   DRY( 70,195)   
    DRY( 70,196)   DRY( 70,197)   DRY( 70,198)   DRY( 70,199)   DRY( 70,200)   
    DRY( 70,201)   DRY( 70,202)   DRY( 70,203)   DRY( 70,204)   DRY( 70,205)   
    DRY( 70,206)   DRY( 70,207)   DRY( 70,208)   DRY( 70,209)   DRY( 70,210)   
    DRY( 70,211)   DRY( 70,212)   DRY( 70,213)   DRY( 70,214)   DRY( 70,215)   
    DRY( 70,216)   DRY( 70,217)   DRY( 70,218)   DRY( 70,219)   DRY( 70,220)   
    DRY( 71,  1)   DRY( 71,  2)   DRY( 71,  3)   DRY( 71,  4)   DRY( 71,  5)   
    DRY( 71,  6)   DRY( 71,  7)   DRY( 71,  8)   DRY( 71,  9)   DRY( 71, 10)   
    DRY( 71, 11)   DRY( 71, 12)   DRY( 71, 13)   DRY( 71, 14)   DRY( 71, 15)   
    DRY( 71, 16)   DRY( 71, 17)   DRY( 71, 18)   DRY( 71, 19)   DRY( 71, 20)   
    DRY( 71, 21)   DRY( 71, 22)   DRY( 71, 23)   DRY( 71, 24)   DRY( 71, 25)   
    DRY( 71, 26)   DRY( 71, 27)   DRY( 71, 28)   DRY( 71, 29)   DRY( 71, 30)   
    DRY( 71, 31)   DRY( 71, 32)   DRY( 71, 33)   DRY( 71, 34)   DRY( 71, 35)   
    DRY( 71, 36)   DRY( 71, 37)   DRY( 71, 38)   DRY( 71, 39)   DRY( 71, 40)   
    DRY( 71, 41)   DRY( 71, 42)   DRY( 71, 43)   DRY( 71, 44)   DRY( 71, 45)   
    DRY( 71, 46)   DRY( 71, 47)   DRY( 71, 48)   DRY( 71, 49)   DRY( 71, 50)   
    DRY( 71, 51)   DRY( 71, 52)   DRY( 71, 53)   DRY( 71, 54)   DRY( 71, 55)   
    DRY( 71, 56)   DRY( 71, 57)   DRY( 71, 58)   DRY( 71, 59)   DRY( 71, 60)   
    DRY( 71, 61)   DRY( 71, 62)   DRY( 71, 63)   DRY( 71, 64)   DRY( 71, 65)   
    DRY( 71, 66)   DRY( 71, 67)   DRY( 71, 68)   DRY( 71, 69)   DRY( 71, 70)   
    DRY( 71, 71)   DRY( 71, 72)   DRY( 71, 73)   DRY( 71, 74)   DRY( 71, 75)   
    DRY( 71, 76)   DRY( 71, 77)   DRY( 71, 78)   DRY( 71, 79)   DRY( 71, 80)   
    DRY( 71, 81)   DRY( 71, 82)   DRY( 71, 83)   DRY( 71, 84)   DRY( 71, 85)   
    DRY( 71, 86)   DRY( 71, 87)   DRY( 71, 88)   DRY( 71, 89)   DRY( 71, 90)   
    DRY( 71, 91)   DRY( 71, 92)   DRY( 71, 93)   DRY( 71, 94)   DRY( 71, 95)   
    DRY( 71, 96)   DRY( 71, 97)   DRY( 71, 98)   DRY( 71, 99)   DRY( 71,100)   
    DRY( 71,101)   DRY( 71,102)   DRY( 71,103)   DRY( 71,104)   DRY( 71,105)   
    DRY( 71,106)   DRY( 71,107)   DRY( 71,108)   DRY( 71,109)   DRY( 71,110)   
    DRY( 71,111)   DRY( 71,112)   DRY( 71,113)   DRY( 71,114)   DRY( 71,115)   
    DRY( 71,116)   DRY( 71,117)   DRY( 71,118)   DRY( 71,119)   DRY( 71,120)   
    DRY( 71,121)   DRY( 71,122)   DRY( 71,123)   DRY( 71,124)   DRY( 71,125)   
    DRY( 71,126)   DRY( 71,127)   DRY( 71,128)   DRY( 71,129)   DRY( 71,130)   
    DRY( 71,131)   DRY( 71,132)   DRY( 71,133)   DRY( 71,134)   DRY( 71,135)   
    DRY( 71,136)   DRY( 71,137)   DRY( 71,138)   DRY( 71,139)   DRY( 71,140)   
    DRY( 71,141)   DRY( 71,142)   DRY( 71,143)   DRY( 71,144)   DRY( 71,145)   
    DRY( 71,146)   DRY( 71,147)   DRY( 71,148)   DRY( 71,149)   DRY( 71,150)   
    DRY( 71,151)   DRY( 71,152)   DRY( 71,153)   DRY( 71,154)   DRY( 71,155)   
    DRY( 71,156)   DRY( 71,157)   DRY( 71,158)   DRY( 71,159)   DRY( 71,160)   
    DRY( 71,161)   DRY( 71,162)   DRY( 71,163)   DRY( 71,164)   DRY( 71,165)   
    DRY( 71,166)   DRY( 71,167)   DRY( 71,168)   DRY( 71,169)   DRY( 71,170)   
    DRY( 71,171)   DRY( 71,172)   DRY( 71,173)   DRY( 71,174)   DRY( 71,175)   
    DRY( 71,176)   DRY( 71,177)   DRY( 71,178)   DRY( 71,179)   DRY( 71,180)   
    DRY( 71,181)   DRY( 71,182)   DRY( 71,183)   DRY( 71,184)   DRY( 71,185)   
    DRY( 71,186)   DRY( 71,187)   DRY( 71,188)   DRY( 71,189)   DRY( 71,190)   
    DRY( 71,191)   DRY( 71,192)   DRY( 71,193)   DRY( 71,194)   DRY( 71,195)   
    DRY( 71,196)   DRY( 71,197)   DRY( 71,198)   DRY( 71,199)   DRY( 71,200)   
    DRY( 71,201)   DRY( 71,202)   DRY( 71,203)   DRY( 71,204)   DRY( 71,205)   
    DRY( 71,206)   DRY( 71,207)   DRY( 71,208)   DRY( 71,209)   DRY( 71,210)   
    DRY( 71,211)   DRY( 71,212)   DRY( 71,213)   DRY( 71,214)   DRY( 71,215)   
    DRY( 71,216)   DRY( 71,217)   DRY( 71,218)   DRY( 71,219)   DRY( 71,220)   
    DRY( 72,  1)   DRY( 72,  2)   DRY( 72,  3)   DRY( 72,  4)   DRY( 72,  5)   
    DRY( 72,  6)   DRY( 72,  7)   DRY( 72,  8)   DRY( 72,  9)   DRY( 72, 10)   
    DRY( 72, 11)   DRY( 72, 12)   DRY( 72, 13)   DRY( 72, 14)   DRY( 72, 15)   
    DRY( 72, 16)   DRY( 72, 17)   DRY( 72, 18)   DRY( 72, 19)   DRY( 72, 20)   
    DRY( 72, 21)   DRY( 72, 22)   DRY( 72, 23)   DRY( 72, 24)   DRY( 72, 25)   
    DRY( 72, 26)   DRY( 72, 27)   DRY( 72, 28)   DRY( 72, 29)   DRY( 72, 30)   
    DRY( 72, 31)   DRY( 72, 32)   DRY( 72, 33)   DRY( 72, 34)   DRY( 72, 35)   
    DRY( 72, 36)   DRY( 72, 37)   DRY( 72, 38)   DRY( 72, 39)   DRY( 72, 40)   
    DRY( 72, 41)   DRY( 72, 42)   DRY( 72, 43)   DRY( 72, 44)   DRY( 72, 45)   
    DRY( 72, 46)   DRY( 72, 47)   DRY( 72, 48)   DRY( 72, 49)   DRY( 72, 50)   
    DRY( 72, 51)   DRY( 72, 52)   DRY( 72, 53)   DRY( 72, 54)   DRY( 72, 55)   
    DRY( 72, 56)   DRY( 72, 57)   DRY( 72, 58)   DRY( 72, 59)   DRY( 72, 60)   
    DRY( 72, 61)   DRY( 72, 62)   DRY( 72, 63)   DRY( 72, 64)   DRY( 72, 65)   
    DRY( 72, 66)   DRY( 72, 67)   DRY( 72, 68)   DRY( 72, 69)   DRY( 72, 70)   
    DRY( 72, 71)   DRY( 72, 72)   DRY( 72, 73)   DRY( 72, 74)   DRY( 72, 75)   
    DRY( 72, 76)   DRY( 72, 77)   DRY( 72, 78)   DRY( 72, 79)   DRY( 72, 80)   
    DRY( 72, 81)   DRY( 72, 82)   DRY( 72, 83)   DRY( 72, 84)   DRY( 72, 85)   
    DRY( 72, 86)   DRY( 72, 87)   DRY( 72, 88)   DRY( 72, 89)   DRY( 72, 90)   
    DRY( 72, 91)   DRY( 72, 92)   DRY( 72, 93)   DRY( 72, 94)   DRY( 72, 95)   
    DRY( 72, 96)   DRY( 72, 97)   DRY( 72, 98)   DRY( 72, 99)   DRY( 72,100)   
    DRY( 72,101)   DRY( 72,102)   DRY( 72,103)   DRY( 72,104)   DRY( 72,105)   
    DRY( 72,106)   DRY( 72,107)   DRY( 72,108)   DRY( 72,109)   DRY( 72,110)   
    DRY( 72,111)   DRY( 72,112)   DRY( 72,113)   DRY( 72,114)   DRY( 72,115)   
    DRY( 72,116)   DRY( 72,117)   DRY( 72,118)   DRY( 72,119)   DRY( 72,120)   
    DRY( 72,121)   DRY( 72,122)   DRY( 72,123)   DRY( 72,124)   DRY( 72,125)   
    DRY( 72,126)   DRY( 72,127)   DRY( 72,128)   DRY( 72,129)   DRY( 72,130)   
    DRY( 72,131)   DRY( 72,132)   DRY( 72,133)   DRY( 72,134)   DRY( 72,135)   
    DRY( 72,136)   DRY( 72,137)   DRY( 72,138)   DRY( 72,139)   DRY( 72,140)   
    DRY( 72,141)   DRY( 72,142)   DRY( 72,143)   DRY( 72,144)   DRY( 72,145)   
    DRY( 72,146)   DRY( 72,147)   DRY( 72,148)   DRY( 72,149)   DRY( 72,150)   
    DRY( 72,151)   DRY( 72,152)   DRY( 72,153)   DRY( 72,154)   DRY( 72,155)   
    DRY( 72,156)   DRY( 72,157)   DRY( 72,158)   DRY( 72,159)   DRY( 72,160)   
    DRY( 72,161)   DRY( 72,162)   DRY( 72,163)   DRY( 72,164)   DRY( 72,165)   
    DRY( 72,166)   DRY( 72,167)   DRY( 72,168)   DRY( 72,169)   DRY( 72,170)   
    DRY( 72,171)   DRY( 72,172)   DRY( 72,173)   DRY( 72,174)   DRY( 72,175)   
    DRY( 72,176)   DRY( 72,177)   DRY( 72,178)   DRY( 72,179)   DRY( 72,180)   
    DRY( 72,181)   DRY( 72,182)   DRY( 72,183)   DRY( 72,184)   DRY( 72,185)   
    DRY( 72,186)   DRY( 72,187)   DRY( 72,188)   DRY( 72,189)   DRY( 72,190)   
    DRY( 72,191)   DRY( 72,192)   DRY( 72,193)   DRY( 72,194)   DRY( 72,195)   
    DRY( 72,196)   DRY( 72,197)   DRY( 72,198)   DRY( 72,199)   DRY( 72,200)   
    DRY( 72,201)   DRY( 72,202)   DRY( 72,203)   DRY( 72,204)   DRY( 72,205)   
    DRY( 72,206)   DRY( 72,207)   DRY( 72,208)   DRY( 72,209)   DRY( 72,210)   
    DRY( 72,211)   DRY( 72,212)   DRY( 72,213)   DRY( 72,214)   DRY( 72,215)   
    DRY( 72,216)   DRY( 72,217)   DRY( 72,218)   DRY( 72,219)   DRY( 72,220)   
    DRY( 73,  1)   DRY( 73,  2)   DRY( 73,  3)   DRY( 73,  4)   DRY( 73,  5)   
    DRY( 73,  6)   DRY( 73,  7)   DRY( 73,  8)   DRY( 73,  9)   DRY( 73, 10)   
    DRY( 73, 11)   DRY( 73, 12)   DRY( 73, 13)   DRY( 73, 14)   DRY( 73, 15)   
    DRY( 73, 16)   DRY( 73, 17)   DRY( 73, 18)   DRY( 73, 19)   DRY( 73, 20)   
    DRY( 73, 21)   DRY( 73, 22)   DRY( 73, 23)   DRY( 73, 24)   DRY( 73, 25)   
    DRY( 73, 26)   DRY( 73, 27)   DRY( 73, 28)   DRY( 73, 29)   DRY( 73, 30)   
    DRY( 73, 31)   DRY( 73, 32)   DRY( 73, 33)   DRY( 73, 34)   DRY( 73, 35)   
    DRY( 73, 36)   DRY( 73, 37)   DRY( 73, 38)   DRY( 73, 39)   DRY( 73, 40)   
    DRY( 73, 41)   DRY( 73, 42)   DRY( 73, 43)   DRY( 73, 44)   DRY( 73, 45)   
    DRY( 73, 46)   DRY( 73, 47)   DRY( 73, 48)   DRY( 73, 49)   DRY( 73, 50)   
    DRY( 73, 51)   DRY( 73, 52)   DRY( 73, 53)   DRY( 73, 54)   DRY( 73, 55)   
    DRY( 73, 56)   DRY( 73, 57)   DRY( 73, 58)   DRY( 73, 59)   DRY( 73, 60)   
    DRY( 73, 61)   DRY( 73, 62)   DRY( 73, 63)   DRY( 73, 64)   DRY( 73, 65)   
    DRY( 73, 66)   DRY( 73, 67)   DRY( 73, 68)   DRY( 73, 69)   DRY( 73, 70)   
    DRY( 73, 71)   DRY( 73, 72)   DRY( 73, 73)   DRY( 73, 74)   DRY( 73, 75)   
    DRY( 73, 76)   DRY( 73, 77)   DRY( 73, 78)   DRY( 73, 79)   DRY( 73, 80)   
    DRY( 73, 81)   DRY( 73, 82)   DRY( 73, 83)   DRY( 73, 84)   DRY( 73, 85)   
    DRY( 73, 86)   DRY( 73, 87)   DRY( 73, 88)   DRY( 73, 89)   DRY( 73, 90)   
    DRY( 73, 91)   DRY( 73, 92)   DRY( 73, 93)   DRY( 73, 94)   DRY( 73, 95)   
    DRY( 73, 96)   DRY( 73, 97)   DRY( 73, 98)   DRY( 73, 99)   DRY( 73,100)   
    DRY( 73,101)   DRY( 73,102)   DRY( 73,103)   DRY( 73,104)   DRY( 73,105)   
    DRY( 73,106)   DRY( 73,107)   DRY( 73,108)   DRY( 73,109)   DRY( 73,110)   
    DRY( 73,111)   DRY( 73,112)   DRY( 73,113)   DRY( 73,114)   DRY( 73,115)   
    DRY( 73,116)   DRY( 73,117)   DRY( 73,118)   DRY( 73,119)   DRY( 73,120)   
    DRY( 73,121)   DRY( 73,122)   DRY( 73,123)   DRY( 73,124)   DRY( 73,125)   
    DRY( 73,126)   DRY( 73,127)   DRY( 73,128)   DRY( 73,129)   DRY( 73,130)   
    DRY( 73,131)   DRY( 73,132)   DRY( 73,133)   DRY( 73,134)   DRY( 73,135)   
    DRY( 73,136)   DRY( 73,137)   DRY( 73,138)   DRY( 73,139)   DRY( 73,140)   
    DRY( 73,141)   DRY( 73,142)   DRY( 73,143)   DRY( 73,144)   DRY( 73,145)   
    DRY( 73,146)   DRY( 73,147)   DRY( 73,148)   DRY( 73,149)   DRY( 73,150)   
    DRY( 73,151)   DRY( 73,152)   DRY( 73,153)   DRY( 73,154)   DRY( 73,155)   
    DRY( 73,156)   DRY( 73,157)   DRY( 73,158)   DRY( 73,159)   DRY( 73,160)   
    DRY( 73,161)   DRY( 73,162)   DRY( 73,163)   DRY( 73,164)   DRY( 73,165)   
    DRY( 73,166)   DRY( 73,167)   DRY( 73,168)   DRY( 73,169)   DRY( 73,170)   
    DRY( 73,171)   DRY( 73,172)   DRY( 73,173)   DRY( 73,174)   DRY( 73,175)   
    DRY( 73,176)   DRY( 73,177)   DRY( 73,178)   DRY( 73,179)   DRY( 73,180)   
    DRY( 73,181)   DRY( 73,182)   DRY( 73,183)   DRY( 73,184)   DRY( 73,185)   
    DRY( 73,186)   DRY( 73,187)   DRY( 73,188)   DRY( 73,189)   DRY( 73,190)   
    DRY( 73,191)   DRY( 73,192)   DRY( 73,193)   DRY( 73,194)   DRY( 73,195)   
    DRY( 73,196)   DRY( 73,197)   DRY( 73,198)   DRY( 73,199)   DRY( 73,200)   
    DRY( 73,201)   DRY( 73,202)   DRY( 73,203)   DRY( 73,204)   DRY( 73,205)   
    DRY( 73,206)   DRY( 73,207)   DRY( 73,208)   DRY( 73,209)   DRY( 73,210)   
    DRY( 73,211)   DRY( 73,212)   DRY( 73,213)   DRY( 73,214)   DRY( 73,215)   
    DRY( 73,216)   DRY( 73,217)   DRY( 73,218)   DRY( 73,219)   DRY( 73,220)   
    DRY( 74,  1)   DRY( 74,  2)   DRY( 74,  3)   DRY( 74,  4)   DRY( 74,  5)   
    DRY( 74,  6)   DRY( 74,  7)   DRY( 74,  8)   DRY( 74,  9)   DRY( 74, 10)   
    DRY( 74, 11)   DRY( 74, 12)   DRY( 74, 13)   DRY( 74, 14)   DRY( 74, 15)   
    DRY( 74, 16)   DRY( 74, 17)   DRY( 74, 18)   DRY( 74, 19)   DRY( 74, 20)   
    DRY( 74, 21)   DRY( 74, 22)   DRY( 74, 23)   DRY( 74, 24)   DRY( 74, 25)   
    DRY( 74, 26)   DRY( 74, 27)   DRY( 74, 28)   DRY( 74, 29)   DRY( 74, 30)   
    DRY( 74, 31)   DRY( 74, 32)   DRY( 74, 33)   DRY( 74, 34)   DRY( 74, 35)   
    DRY( 74, 36)   DRY( 74, 37)   DRY( 74, 38)   DRY( 74, 39)   DRY( 74, 40)   
    DRY( 74, 41)   DRY( 74, 42)   DRY( 74, 43)   DRY( 74, 44)   DRY( 74, 45)   
    DRY( 74, 46)   DRY( 74, 47)   DRY( 74, 48)   DRY( 74, 49)   DRY( 74, 50)   
    DRY( 74, 51)   DRY( 74, 52)   DRY( 74, 53)   DRY( 74, 54)   DRY( 74, 55)   
    DRY( 74, 56)   DRY( 74, 57)   DRY( 74, 58)   DRY( 74, 59)   DRY( 74, 60)   
    DRY( 74, 61)   DRY( 74, 62)   DRY( 74, 63)   DRY( 74, 64)   DRY( 74, 65)   
    DRY( 74, 66)   DRY( 74, 67)   DRY( 74, 68)   DRY( 74, 69)   DRY( 74, 70)   
    DRY( 74, 71)   DRY( 74, 72)   DRY( 74, 73)   DRY( 74, 74)   DRY( 74, 75)   
    DRY( 74, 76)   DRY( 74, 77)   DRY( 74, 78)   DRY( 74, 79)   DRY( 74, 80)   
    DRY( 74, 81)   DRY( 74, 82)   DRY( 74, 83)   DRY( 74, 84)   DRY( 74, 85)   
    DRY( 74, 86)   DRY( 74, 87)   DRY( 74, 88)   DRY( 74, 89)   DRY( 74, 90)   
    DRY( 74, 91)   DRY( 74, 92)   DRY( 74, 93)   DRY( 74, 94)   DRY( 74, 95)   
    DRY( 74, 96)   DRY( 74, 97)   DRY( 74, 98)   DRY( 74, 99)   DRY( 74,100)   
    DRY( 74,101)   DRY( 74,102)   DRY( 74,103)   DRY( 74,104)   DRY( 74,105)   
    DRY( 74,106)   DRY( 74,107)   DRY( 74,108)   DRY( 74,109)   DRY( 74,110)   
    DRY( 74,111)   DRY( 74,112)   DRY( 74,113)   DRY( 74,114)   DRY( 74,115)   
    DRY( 74,116)   DRY( 74,117)   DRY( 74,118)   DRY( 74,119)   DRY( 74,120)   
    DRY( 74,121)   DRY( 74,122)   DRY( 74,123)   DRY( 74,124)   DRY( 74,125)   
    DRY( 74,126)   DRY( 74,127)   DRY( 74,128)   DRY( 74,129)   DRY( 74,130)   
    DRY( 74,131)   DRY( 74,132)   DRY( 74,133)   DRY( 74,134)   DRY( 74,135)   
    DRY( 74,136)   DRY( 74,137)   DRY( 74,138)   DRY( 74,139)   DRY( 74,140)   
    DRY( 74,141)   DRY( 74,142)   DRY( 74,143)   DRY( 74,144)   DRY( 74,145)   
    DRY( 74,146)   DRY( 74,147)   DRY( 74,148)   DRY( 74,149)   DRY( 74,150)   
    DRY( 74,151)   DRY( 74,152)   DRY( 74,153)   DRY( 74,154)   DRY( 74,155)   
    DRY( 74,156)   DRY( 74,157)   DRY( 74,158)   DRY( 74,159)   DRY( 74,160)   
    DRY( 74,161)   DRY( 74,162)   DRY( 74,163)   DRY( 74,164)   DRY( 74,165)   
    DRY( 74,166)   DRY( 74,167)   DRY( 74,168)   DRY( 74,169)   DRY( 74,170)   
    DRY( 74,171)   DRY( 74,172)   DRY( 74,173)   DRY( 74,174)   DRY( 74,175)   
    DRY( 74,176)   DRY( 74,177)   DRY( 74,178)   DRY( 74,179)   DRY( 74,180)   
    DRY( 74,181)   DRY( 74,182)   DRY( 74,183)   DRY( 74,184)   DRY( 74,185)   
    DRY( 74,186)   DRY( 74,187)   DRY( 74,188)   DRY( 74,189)   DRY( 74,190)   
    DRY( 74,191)   DRY( 74,192)   DRY( 74,193)   DRY( 74,194)   DRY( 74,195)   
    DRY( 74,196)   DRY( 74,197)   DRY( 74,198)   DRY( 74,199)   DRY( 74,200)   
    DRY( 74,201)   DRY( 74,202)   DRY( 74,203)   DRY( 74,204)   DRY( 74,205)   
    DRY( 74,206)   DRY( 74,207)   DRY( 74,208)   DRY( 74,209)   DRY( 74,210)   
    DRY( 74,211)   DRY( 74,212)   DRY( 74,213)   DRY( 74,214)   DRY( 74,215)   
    DRY( 74,216)   DRY( 74,217)   DRY( 74,218)   DRY( 74,219)   DRY( 74,220)   
    DRY( 75,  1)   DRY( 75,  2)   DRY( 75,  3)   DRY( 75,  4)   DRY( 75,  5)   
    DRY( 75,  6)   DRY( 75,  7)   DRY( 75,  8)   DRY( 75,  9)   DRY( 75, 10)   
    DRY( 75, 11)   DRY( 75, 12)   DRY( 75, 13)   DRY( 75, 14)   DRY( 75, 15)   
    DRY( 75, 16)   DRY( 75, 17)   DRY( 75, 18)   DRY( 75, 19)   DRY( 75, 20)   
    DRY( 75, 21)   DRY( 75, 22)   DRY( 75, 23)   DRY( 75, 24)   DRY( 75, 25)   
    DRY( 75, 26)   DRY( 75, 27)   DRY( 75, 28)   DRY( 75, 29)   DRY( 75, 30)   
    DRY( 75, 31)   DRY( 75, 32)   DRY( 75, 33)   DRY( 75, 34)   DRY( 75, 35)   
    DRY( 75, 36)   DRY( 75, 37)   DRY( 75, 38)   DRY( 75, 39)   DRY( 75, 40)   
    DRY( 75, 41)   DRY( 75, 42)   DRY( 75, 43)   DRY( 75, 44)   DRY( 75, 45)   
    DRY( 75, 46)   DRY( 75, 47)   DRY( 75, 48)   DRY( 75, 49)   DRY( 75, 50)   
    DRY( 75, 51)   DRY( 75, 52)   DRY( 75, 53)   DRY( 75, 54)   DRY( 75, 55)   
    DRY( 75, 56)   DRY( 75, 57)   DRY( 75, 58)   DRY( 75, 59)   DRY( 75, 60)   
    DRY( 75, 61)   DRY( 75, 62)   DRY( 75, 63)   DRY( 75, 64)   DRY( 75, 65)   
    DRY( 75, 66)   DRY( 75, 67)   DRY( 75, 68)   DRY( 75, 69)   DRY( 75, 70)   
    DRY( 75, 71)   DRY( 75, 72)   DRY( 75, 73)   DRY( 75, 74)   DRY( 75, 75)   
    DRY( 75, 76)   DRY( 75, 77)   DRY( 75, 78)   DRY( 75, 79)   DRY( 75, 80)   
    DRY( 75, 81)   DRY( 75, 82)   DRY( 75, 83)   DRY( 75, 84)   DRY( 75, 85)   
    DRY( 75, 86)   DRY( 75, 87)   DRY( 75, 88)   DRY( 75, 89)   DRY( 75, 90)   
    DRY( 75, 91)   DRY( 75, 92)   DRY( 75, 93)   DRY( 75, 94)   DRY( 75, 95)   
    DRY( 75, 96)   DRY( 75, 97)   DRY( 75, 98)   DRY( 75, 99)   DRY( 75,100)   
    DRY( 75,101)   DRY( 75,102)   DRY( 75,103)   DRY( 75,104)   DRY( 75,105)   
    DRY( 75,106)   DRY( 75,107)   DRY( 75,108)   DRY( 75,109)   DRY( 75,110)   
    DRY( 75,111)   DRY( 75,112)   DRY( 75,113)   DRY( 75,114)   DRY( 75,115)   
    DRY( 75,116)   DRY( 75,117)   DRY( 75,118)   DRY( 75,119)   DRY( 75,120)   
    DRY( 75,121)   DRY( 75,122)   DRY( 75,123)   DRY( 75,124)   DRY( 75,125)   
    DRY( 75,126)   DRY( 75,127)   DRY( 75,128)   DRY( 75,129)   DRY( 75,130)   
    DRY( 75,131)   DRY( 75,132)   DRY( 75,133)   DRY( 75,134)   DRY( 75,135)   
    DRY( 75,136)   DRY( 75,137)   DRY( 75,138)   DRY( 75,139)   DRY( 75,140)   
    DRY( 75,141)   DRY( 75,142)   DRY( 75,143)   DRY( 75,144)   DRY( 75,145)   
    DRY( 75,146)   DRY( 75,147)   DRY( 75,148)   DRY( 75,149)   DRY( 75,150)   
    DRY( 75,151)   DRY( 75,152)   DRY( 75,153)   DRY( 75,154)   DRY( 75,155)   
    DRY( 75,156)   DRY( 75,157)   DRY( 75,158)   DRY( 75,159)   DRY( 75,160)   
    DRY( 75,161)   DRY( 75,162)   DRY( 75,163)   DRY( 75,164)   DRY( 75,165)   
    DRY( 75,166)   DRY( 75,167)   DRY( 75,168)   DRY( 75,169)   DRY( 75,170)   
    DRY( 75,171)   DRY( 75,172)   DRY( 75,173)   DRY( 75,174)   DRY( 75,175)   
    DRY( 75,176)   DRY( 75,177)   DRY( 75,178)   DRY( 75,179)   DRY( 75,180)   
    DRY( 75,181)   DRY( 75,182)   DRY( 75,183)   DRY( 75,184)   DRY( 75,185)   
    DRY( 75,186)   DRY( 75,187)   DRY( 75,188)   DRY( 75,189)   DRY( 75,190)   
    DRY( 75,191)   DRY( 75,192)   DRY( 75,193)   DRY( 75,194)   DRY( 75,195)   
    DRY( 75,196)   DRY( 75,197)   DRY( 75,198)   DRY( 75,199)   DRY( 75,200)   
    DRY( 75,201)   DRY( 75,202)   DRY( 75,203)   DRY( 75,204)   DRY( 75,205)   
    DRY( 75,206)   DRY( 75,207)   DRY( 75,208)   DRY( 75,209)   DRY( 75,210)   
    DRY( 75,211)   DRY( 75,212)   DRY( 75,213)   DRY( 75,214)   DRY( 75,215)   
    DRY( 75,216)   DRY( 75,217)   DRY( 75,218)   DRY( 75,219)   DRY( 75,220)   
    DRY( 76,  1)   DRY( 76,  2)   DRY( 76,  3)   DRY( 76,  4)   DRY( 76,  5)   
    DRY( 76,  6)   DRY( 76,  7)   DRY( 76,  8)   DRY( 76,  9)   DRY( 76, 10)   
    DRY( 76, 11)   DRY( 76, 12)   DRY( 76, 13)   DRY( 76, 14)   DRY( 76, 15)   
    DRY( 76, 16)   DRY( 76, 17)   DRY( 76, 18)   DRY( 76, 19)   DRY( 76, 20)   
    DRY( 76, 21)   DRY( 76, 22)   DRY( 76, 23)   DRY( 76, 24)   DRY( 76, 25)   
    DRY( 76, 26)   DRY( 76, 27)   DRY( 76, 28)   DRY( 76, 29)   DRY( 76, 30)   
    DRY( 76, 31)   DRY( 76, 32)   DRY( 76, 33)   DRY( 76, 34)   DRY( 76, 35)   
    DRY( 76, 36)   DRY( 76, 37)   DRY( 76, 38)   DRY( 76, 39)   DRY( 76, 40)   
    DRY( 76, 41)   DRY( 76, 42)   DRY( 76, 43)   DRY( 76, 44)   DRY( 76, 45)   
    DRY( 76, 46)   DRY( 76, 47)   DRY( 76, 48)   DRY( 76, 49)   DRY( 76, 50)   
    DRY( 76, 51)   DRY( 76, 52)   DRY( 76, 53)   DRY( 76, 54)   DRY( 76, 55)   
    DRY( 76, 56)   DRY( 76, 57)   DRY( 76, 58)   DRY( 76, 59)   DRY( 76, 60)   
    DRY( 76, 61)   DRY( 76, 62)   DRY( 76, 63)   DRY( 76, 64)   DRY( 76, 65)   
    DRY( 76, 66)   DRY( 76, 67)   DRY( 76, 68)   DRY( 76, 69)   DRY( 76, 70)   
    DRY( 76, 71)   DRY( 76, 72)   DRY( 76, 73)   DRY( 76, 74)   DRY( 76, 75)   
    DRY( 76, 76)   DRY( 76, 77)   DRY( 76, 78)   DRY( 76, 79)   DRY( 76, 80)   
    DRY( 76, 81)   DRY( 76, 82)   DRY( 76, 83)   DRY( 76, 84)   DRY( 76, 85)   
    DRY( 76, 86)   DRY( 76, 87)   DRY( 76, 88)   DRY( 76, 89)   DRY( 76, 90)   
    DRY( 76, 91)   DRY( 76, 92)   DRY( 76, 93)   DRY( 76, 94)   DRY( 76, 95)   
    DRY( 76, 96)   DRY( 76, 97)   DRY( 76, 98)   DRY( 76, 99)   DRY( 76,100)   
    DRY( 76,101)   DRY( 76,102)   DRY( 76,103)   DRY( 76,104)   DRY( 76,105)   
    DRY( 76,106)   DRY( 76,107)   DRY( 76,108)   DRY( 76,109)   DRY( 76,110)   
    DRY( 76,111)   DRY( 76,112)   DRY( 76,113)   DRY( 76,114)   DRY( 76,115)   
    DRY( 76,116)   DRY( 76,117)   DRY( 76,118)   DRY( 76,119)   DRY( 76,120)   
    DRY( 76,121)   DRY( 76,122)   DRY( 76,123)   DRY( 76,124)   DRY( 76,125)   
    DRY( 76,126)   DRY( 76,127)   DRY( 76,128)   DRY( 76,129)   DRY( 76,130)   
    DRY( 76,131)   DRY( 76,132)   DRY( 76,133)   DRY( 76,134)   DRY( 76,135)   
    DRY( 76,136)   DRY( 76,137)   DRY( 76,138)   DRY( 76,139)   DRY( 76,140)   
    DRY( 76,141)   DRY( 76,142)   DRY( 76,143)   DRY( 76,144)   DRY( 76,145)   
    DRY( 76,146)   DRY( 76,147)   DRY( 76,148)   DRY( 76,149)   DRY( 76,150)   
    DRY( 76,151)   DRY( 76,152)   DRY( 76,153)   DRY( 76,154)   DRY( 76,155)   
    DRY( 76,156)   DRY( 76,157)   DRY( 76,158)   DRY( 76,159)   DRY( 76,160)   
    DRY( 76,161)   DRY( 76,162)   DRY( 76,163)   DRY( 76,164)   DRY( 76,165)   
    DRY( 76,166)   DRY( 76,167)   DRY( 76,168)   DRY( 76,169)   DRY( 76,170)   
    DRY( 76,171)   DRY( 76,172)   DRY( 76,173)   DRY( 76,174)   DRY( 76,175)   
    DRY( 76,176)   DRY( 76,177)   DRY( 76,178)   DRY( 76,179)   DRY( 76,180)   
    DRY( 76,181)   DRY( 76,182)   DRY( 76,183)   DRY( 76,184)   DRY( 76,185)   
    DRY( 76,186)   DRY( 76,187)   DRY( 76,188)   DRY( 76,189)   DRY( 76,190)   
    DRY( 76,191)   DRY( 76,192)   DRY( 76,193)   DRY( 76,194)   DRY( 76,195)   
    DRY( 76,196)   DRY( 76,197)   DRY( 76,198)   DRY( 76,199)   DRY( 76,200)   
    DRY( 76,201)   DRY( 76,202)   DRY( 76,203)   DRY( 76,204)   DRY( 76,205)   
    DRY( 76,206)   DRY( 76,207)   DRY( 76,208)   DRY( 76,209)   DRY( 76,210)   
    DRY( 76,211)   DRY( 76,212)   DRY( 76,213)   DRY( 76,214)   DRY( 76,215)   
    DRY( 76,216)   DRY( 76,217)   DRY( 76,218)   DRY( 76,219)   DRY( 76,220)   
    DRY( 77,  1)   DRY( 77,  2)   DRY( 77,  3)   DRY( 77,  4)   DRY( 77,  5)   
    DRY( 77,  6)   DRY( 77,  7)   DRY( 77,  8)   DRY( 77,  9)   DRY( 77, 10)   
    DRY( 77, 11)   DRY( 77, 12)   DRY( 77, 13)   DRY( 77, 14)   DRY( 77, 15)   
    DRY( 77, 16)   DRY( 77, 17)   DRY( 77, 18)   DRY( 77, 19)   DRY( 77, 20)   
    DRY( 77, 21)   DRY( 77, 22)   DRY( 77, 23)   DRY( 77, 24)   DRY( 77, 25)   
    DRY( 77, 26)   DRY( 77, 27)   DRY( 77, 28)   DRY( 77, 29)   DRY( 77, 30)   
    DRY( 77, 31)   DRY( 77, 32)   DRY( 77, 33)   DRY( 77, 34)   DRY( 77, 35)   
    DRY( 77, 36)   DRY( 77, 37)   DRY( 77, 38)   DRY( 77, 39)   DRY( 77, 40)   
    DRY( 77, 41)   DRY( 77, 42)   DRY( 77, 43)   DRY( 77, 44)   DRY( 77, 45)   
    DRY( 77, 46)   DRY( 77, 47)   DRY( 77, 48)   DRY( 77, 49)   DRY( 77, 50)   
    DRY( 77, 51)   DRY( 77, 52)   DRY( 77, 53)   DRY( 77, 54)   DRY( 77, 55)   
    DRY( 77, 56)   DRY( 77, 57)   DRY( 77, 58)   DRY( 77, 59)   DRY( 77, 60)   
    DRY( 77, 61)   DRY( 77, 62)   DRY( 77, 63)   DRY( 77, 64)   DRY( 77, 65)   
    DRY( 77, 66)   DRY( 77, 67)   DRY( 77, 68)   DRY( 77, 69)   DRY( 77, 70)   
    DRY( 77, 71)   DRY( 77, 72)   DRY( 77, 73)   DRY( 77, 74)   DRY( 77, 75)   
    DRY( 77, 76)   DRY( 77, 77)   DRY( 77, 78)   DRY( 77, 79)   DRY( 77, 80)   
    DRY( 77, 81)   DRY( 77, 82)   DRY( 77, 83)   DRY( 77, 84)   DRY( 77, 85)   
    DRY( 77, 86)   DRY( 77, 87)   DRY( 77, 88)   DRY( 77, 89)   DRY( 77, 90)   
    DRY( 77, 91)   DRY( 77, 92)   DRY( 77, 93)   DRY( 77, 94)   DRY( 77, 95)   
    DRY( 77, 96)   DRY( 77, 97)   DRY( 77, 98)   DRY( 77, 99)   DRY( 77,100)   
    DRY( 77,101)   DRY( 77,102)   DRY( 77,103)   DRY( 77,104)   DRY( 77,105)   
    DRY( 77,106)   DRY( 77,107)   DRY( 77,108)   DRY( 77,109)   DRY( 77,110)   
    DRY( 77,111)   DRY( 77,112)   DRY( 77,113)   DRY( 77,114)   DRY( 77,115)   
    DRY( 77,116)   DRY( 77,117)   DRY( 77,118)   DRY( 77,119)   DRY( 77,120)   
    DRY( 77,121)   DRY( 77,122)   DRY( 77,123)   DRY( 77,124)   DRY( 77,125)   
    DRY( 77,126)   DRY( 77,127)   DRY( 77,128)   DRY( 77,129)   DRY( 77,130)   
    DRY( 77,131)   DRY( 77,132)   DRY( 77,133)   DRY( 77,134)   DRY( 77,135)   
    DRY( 77,136)   DRY( 77,137)   DRY( 77,138)   DRY( 77,139)   DRY( 77,140)   
    DRY( 77,141)   DRY( 77,142)   DRY( 77,143)   DRY( 77,144)   DRY( 77,145)   
    DRY( 77,146)   DRY( 77,147)   DRY( 77,148)   DRY( 77,149)   DRY( 77,150)   
    DRY( 77,151)   DRY( 77,152)   DRY( 77,153)   DRY( 77,154)   DRY( 77,155)   
    DRY( 77,156)   DRY( 77,157)   DRY( 77,158)   DRY( 77,159)   DRY( 77,160)   
    DRY( 77,161)   DRY( 77,162)   DRY( 77,163)   DRY( 77,164)   DRY( 77,165)   
    DRY( 77,166)   DRY( 77,167)   DRY( 77,168)   DRY( 77,169)   DRY( 77,170)   
    DRY( 77,171)   DRY( 77,172)   DRY( 77,173)   DRY( 77,174)   DRY( 77,175)   
    DRY( 77,176)   DRY( 77,177)   DRY( 77,178)   DRY( 77,179)   DRY( 77,180)   
    DRY( 77,181)   DRY( 77,182)   DRY( 77,183)   DRY( 77,184)   DRY( 77,185)   
    DRY( 77,186)   DRY( 77,187)   DRY( 77,188)   DRY( 77,189)   DRY( 77,190)   
    DRY( 77,191)   DRY( 77,192)   DRY( 77,193)   DRY( 77,194)   DRY( 77,195)   
    DRY( 77,196)   DRY( 77,197)   DRY( 77,198)   DRY( 77,199)   DRY( 77,200)   
    DRY( 77,201)   DRY( 77,202)   DRY( 77,203)   DRY( 77,204)   DRY( 77,205)   
    DRY( 77,206)   DRY( 77,207)   DRY( 77,208)   DRY( 77,209)   DRY( 77,210)   
    DRY( 77,211)   DRY( 77,212)   DRY( 77,213)   DRY( 77,214)   DRY( 77,215)   
    DRY( 77,216)   DRY( 77,217)   DRY( 77,218)   DRY( 77,219)   DRY( 77,220)   
    DRY( 78, 24)   DRY( 78, 25)   DRY( 78, 26)   DRY( 78, 27)   DRY( 78, 28)   
    DRY( 78, 29)   DRY( 78, 30)   DRY( 78, 31)   DRY( 78, 59)   DRY( 78, 60)   
    DRY( 78, 61)   DRY( 78, 62)   DRY( 78, 63)   DRY( 78, 64)   DRY( 78, 65)   
    DRY( 78, 66)   DRY( 78, 67)   DRY( 78, 68)   DRY( 78, 69)   DRY( 78, 70)   
    DRY( 78, 71)   DRY( 78, 72)   DRY( 78, 73)   DRY( 78, 74)   DRY( 78, 75)   
    DRY( 78, 76)   DRY( 78, 77)   DRY( 78, 78)   DRY( 78, 79)   DRY( 78, 80)   
    DRY( 78, 81)   DRY( 78, 82)   DRY( 78, 83)   DRY( 78, 84)   DRY( 78, 85)   
    DRY( 78, 86)   DRY( 78, 87)   DRY( 78, 88)   DRY( 78, 89)   DRY( 78, 90)   
    DRY( 78, 91)   DRY( 78, 92)   DRY( 78, 93)   DRY( 78, 94)   DRY( 78, 95)   
    DRY( 78, 96)   DRY( 78, 97)   DRY( 78, 98)   DRY( 78, 99)   DRY( 78,100)   
    DRY( 78,101)   DRY( 78,102)   DRY( 78,103)   DRY( 78,104)   DRY( 78,105)   
    DRY( 78,106)   DRY( 78,107)   DRY( 78,108)   DRY( 78,109)   DRY( 78,110)   
    DRY( 78,111)   DRY( 78,112)   DRY( 78,113)   DRY( 78,114)   DRY( 78,115)   
    DRY( 78,116)   DRY( 78,117)   DRY( 78,118)   DRY( 78,119)   DRY( 78,120)   
    DRY( 78,121)   DRY( 78,122)   DRY( 78,123)   DRY( 78,124)   DRY( 78,125)   
    DRY( 78,126)   DRY( 78,127)   DRY( 78,128)   DRY( 78,129)   DRY( 78,130)   
    DRY( 78,131)   DRY( 78,132)   DRY( 78,133)   DRY( 78,134)   DRY( 78,135)   
    DRY( 78,136)   DRY( 78,137)   DRY( 78,138)   DRY( 78,139)   DRY( 78,140)   
    DRY( 78,141)   DRY( 78,142)   DRY( 78,143)   DRY( 78,144)   DRY( 78,145)   
    DRY( 78,146)   DRY( 78,147)   DRY( 78,148)   DRY( 78,149)   DRY( 78,150)   
    DRY( 78,151)   DRY( 78,152)   DRY( 78,153)   DRY( 78,154)   DRY( 78,155)   
    DRY( 78,156)   DRY( 78,157)   DRY( 78,158)   DRY( 78,159)   DRY( 78,160)   
    DRY( 78,161)   DRY( 78,162)   DRY( 78,163)   DRY( 78,164)   DRY( 78,165)   
    DRY( 78,166)   DRY( 78,167)   DRY( 78,168)   DRY( 78,169)   DRY( 78,170)   
    DRY( 78,171)   DRY( 78,172)   DRY( 78,173)   DRY( 78,174)   DRY( 78,175)   
    DRY( 78,176)   DRY( 78,177)   DRY( 78,178)   DRY( 78,179)   DRY( 78,180)   
    DRY( 78,181)   DRY( 78,182)   DRY( 78,183)   DRY( 78,184)   DRY( 78,185)   
    DRY( 78,186)   DRY( 78,187)   DRY( 78,188)   DRY( 78,189)   DRY( 78,190)   
    DRY( 78,191)   DRY( 78,192)   DRY( 78,193)   DRY( 78,194)   DRY( 78,195)   
    DRY( 78,196)   DRY( 78,197)   DRY( 78,198)   DRY( 78,199)   DRY( 78,200)   
    DRY( 78,201)   DRY( 78,202)   DRY( 78,203)   DRY( 78,204)   DRY( 78,205)   
    DRY( 78,206)   DRY( 78,207)   DRY( 78,208)   DRY( 78,209)   DRY( 78,210)   
    DRY( 78,211)   DRY( 78,212)   DRY( 78,213)   DRY( 78,214)   DRY( 78,215)   
    DRY( 78,216)   DRY( 78,217)   DRY( 78,218)   DRY( 78,219)   DRY( 78,220)   
    DRY( 79,140)   DRY( 79,141)   DRY( 79,142)   DRY( 79,143)   DRY( 79,144)   
    DRY( 79,145)   DRY( 79,146)   DRY( 79,147)   DRY( 79,148)   DRY( 79,149)   
    DRY( 79,150)   DRY( 79,151)   DRY( 79,152)   DRY( 79,153)   DRY( 79,154)   
    DRY( 79,155)   DRY( 79,156)   DRY( 79,157)   DRY( 79,158)   DRY( 79,159)   
    DRY( 79,160)   DRY( 79,161)   DRY( 79,162)   DRY( 79,163)   DRY( 79,164)   
    DRY( 79,165)   DRY( 79,166)   DRY( 79,167)   DRY( 79,168)   DRY( 79,169)   
    DRY( 79,170)   DRY( 79,171)   DRY( 79,172)   DRY( 79,173)   DRY( 79,174)   
    DRY( 79,175)   DRY( 79,176)   DRY( 79,177)   DRY( 79,178)   DRY( 79,179)   
    DRY( 79,180)   DRY( 79,181)   DRY( 79,182)   DRY( 79,183)   DRY( 79,184)   
    DRY( 79,185)   DRY( 79,186)   DRY( 79,187)   DRY( 79,188)   DRY( 79,189)   
    DRY( 79,190)   DRY( 79,191)   DRY( 79,192)   DRY( 79,193)   DRY( 79,194)   
    DRY( 79,195)   DRY( 79,196)   DRY( 79,197)   DRY( 79,198)   DRY( 79,199)   
    DRY( 79,200)   DRY( 79,201)   DRY( 79,202)   DRY( 79,203)   DRY( 79,204)   
    DRY( 79,205)   DRY( 79,206)   DRY( 79,207)   DRY( 79,208)   DRY( 79,209)   
    DRY( 79,210)   DRY( 79,211)   DRY( 79,212)   DRY( 79,213)   DRY( 79,214)   
    DRY( 79,215)   DRY( 79,216)   DRY( 79,217)   DRY( 79,218)   DRY( 79,219)   
    DRY( 79,220)   DRY( 80,209)   DRY( 80,210)   DRY( 80,211)   DRY( 80,212)   
    DRY( 80,213)   DRY( 80,214)   DRY( 80,215)   DRY( 80,216)   DRY( 80,217)   
    DRY( 80,218)   DRY( 80,219)   DRY( 80,220)   

 CELL CONVERSIONS FOR ITER.=  4  LAYER= 26  STEP=  1  PERIOD=   1   (ROW,COL)
    DRY( 73,  1)   DRY( 73,  2)   DRY( 73,  3)   DRY( 73,  4)   DRY( 73,  5)   
    DRY( 73,  6)   DRY( 73,  7)   DRY( 73,  8)   DRY( 73,  9)   DRY( 73, 10)   
    DRY( 73, 11)   DRY( 73, 12)   DRY( 73, 13)   DRY( 73, 14)   DRY( 73, 15)   
    DRY( 73, 16)   DRY( 73, 17)   DRY( 73, 18)   DRY( 73, 19)   DRY( 73, 20)   
    DRY( 73, 21)   DRY( 73, 22)   DRY( 73, 23)   DRY( 73, 24)   DRY( 73, 25)   
    DRY( 73, 26)   DRY( 73, 27)   DRY( 73, 28)   DRY( 73, 29)   DRY( 73, 30)   
    DRY( 73, 31)   DRY( 73, 32)   DRY( 73, 33)   DRY( 73, 34)   DRY( 73, 35)   
    DRY( 73, 36)   DRY( 73, 37)   DRY( 73, 38)   DRY( 73, 39)   DRY( 73, 40)   
    DRY( 73, 41)   DRY( 73, 42)   DRY( 73, 43)   DRY( 73, 44)   DRY( 73, 45)   
    DRY( 73, 46)   DRY( 73, 47)   DRY( 73, 48)   DRY( 73, 49)   DRY( 73, 50)   
    DRY( 73, 51)   DRY( 73, 52)   DRY( 73, 53)   DRY( 73, 54)   DRY( 73, 55)   
    DRY( 73, 56)   DRY( 73, 57)   DRY( 73, 58)   DRY( 73, 59)   DRY( 73, 60)   
    DRY( 73, 61)   DRY( 73, 62)   DRY( 73, 63)   DRY( 73, 64)   DRY( 73, 65)   
    DRY( 73, 66)   DRY( 73, 67)   DRY( 73, 68)   DRY( 73, 69)   DRY( 73, 70)   
    DRY( 73, 71)   DRY( 73, 72)   DRY( 73, 73)   DRY( 73, 74)   DRY( 73, 75)   
    DRY( 73, 76)   DRY( 73, 77)   DRY( 73, 78)   DRY( 73, 79)   DRY( 73, 80)   
    DRY( 73, 81)   DRY( 73, 82)   DRY( 73, 83)   DRY( 73, 84)   DRY( 73, 85)   
    DRY( 73, 86)   DRY( 73, 87)   DRY( 73, 88)   DRY( 73, 89)   DRY( 73, 90)   
    DRY( 73, 91)   DRY( 73, 92)   DRY( 73, 93)   DRY( 73, 94)   DRY( 73, 95)   
    DRY( 73, 96)   DRY( 73, 97)   DRY( 73, 98)   DRY( 73, 99)   DRY( 73,100)   
    DRY( 73,101)   DRY( 73,102)   DRY( 73,103)   DRY( 73,104)   DRY( 73,105)   
    DRY( 73,106)   DRY( 73,107)   DRY( 73,108)   DRY( 73,109)   DRY( 73,110)   
    DRY( 73,111)   DRY( 73,112)   DRY( 73,113)   DRY( 73,114)   DRY( 73,115)   
    DRY( 73,116)   DRY( 73,117)   DRY( 73,118)   DRY( 74,  1)   DRY( 74,  2)   
    DRY( 74,  3)   DRY( 74,  4)   DRY( 74,  5)   DRY( 74,  6)   DRY( 74,  7)   
    DRY( 74,  8)   DRY( 74,  9)   DRY( 74, 10)   DRY( 74, 11)   DRY( 74, 12)   
    DRY( 74, 13)   DRY( 74, 14)   DRY( 74, 15)   DRY( 74, 16)   DRY( 74, 17)   
    DRY( 74, 18)   DRY( 74, 19)   DRY( 74, 20)   DRY( 74, 21)   DRY( 74, 22)   
    DRY( 74, 23)   DRY( 74, 24)   DRY( 74, 25)   DRY( 74, 26)   DRY( 74, 27)   
    DRY( 74, 28)   DRY( 74, 29)   DRY( 74, 30)   DRY( 74, 31)   DRY( 74, 32)   
    DRY( 74, 33)   DRY( 74, 34)   DRY( 74, 35)   DRY( 74, 36)   DRY( 74, 37)   
    DRY( 74, 38)   DRY( 74, 39)   DRY( 74, 40)   DRY( 74, 41)   DRY( 74, 42)   
    DRY( 74, 43)   DRY( 74, 44)   DRY( 74, 45)   DRY( 74, 46)   DRY( 74, 47)   
    DRY( 74, 48)   DRY( 74, 49)   DRY( 74, 50)   DRY( 74, 51)   DRY( 74, 52)   
    DRY( 74, 53)   DRY( 74, 54)   DRY( 74, 55)   DRY( 74, 56)   DRY( 74, 57)   
    DRY( 74, 58)   DRY( 74, 59)   DRY( 74, 60)   DRY( 74, 61)   DRY( 74, 62)   
    DRY( 74, 63)   DRY( 74, 64)   DRY( 74, 65)   DRY( 74, 66)   DRY( 74, 67)   
    DRY( 74, 68)   DRY( 74, 69)   DRY( 74, 70)   DRY( 74, 71)   DRY( 74, 72)   
    DRY( 74, 73)   DRY( 74, 74)   DRY( 74, 75)   DRY( 74, 76)   DRY( 74, 77)   
    DRY( 74, 78)   DRY( 74, 79)   DRY( 74, 80)   DRY( 74, 81)   DRY( 74, 82)   
    DRY( 74, 83)   DRY( 74, 84)   DRY( 74, 85)   DRY( 74, 86)   DRY( 74, 87)   
    DRY( 74, 88)   DRY( 74, 89)   DRY( 74, 90)   DRY( 74, 91)   DRY( 74, 92)   
    DRY( 74, 93)   DRY( 74, 94)   DRY( 74, 95)   DRY( 74, 96)   DRY( 74, 97)   
    DRY( 74, 98)   DRY( 74, 99)   DRY( 74,100)   DRY( 74,101)   DRY( 74,102)   
    DRY( 74,103)   DRY( 74,104)   DRY( 74,105)   DRY( 74,106)   DRY( 74,107)   
    DRY( 74,108)   DRY( 74,109)   DRY( 74,110)   DRY( 74,111)   DRY( 74,112)   
    DRY( 74,113)   DRY( 74,114)   DRY( 74,115)   DRY( 74,116)   DRY( 74,117)   
    DRY( 74,118)   DRY( 74,119)   DRY( 74,120)   DRY( 74,121)   DRY( 74,122)   
    DRY( 74,123)   DRY( 74,124)   DRY( 74,125)   DRY( 74,126)   DRY( 74,127)   
    DRY( 74,128)   DRY( 74,129)   DRY( 74,130)   DRY( 74,131)   DRY( 74,132)   
    DRY( 74,133)   DRY( 74,134)   DRY( 74,135)   DRY( 74,136)   DRY( 74,137)   
    DRY( 74,138)   DRY( 74,139)   DRY( 74,140)   DRY( 74,141)   DRY( 74,142)   
    DRY( 74,143)   DRY( 74,144)   DRY( 74,145)   DRY( 74,146)   DRY( 74,147)   
    DRY( 74,148)   DRY( 74,149)   DRY( 74,150)   DRY( 74,151)   DRY( 74,152)   
    DRY( 74,153)   DRY( 74,154)   DRY( 74,155)   DRY( 74,156)   DRY( 74,157)   
    DRY( 74,158)   DRY( 74,159)   DRY( 74,160)   DRY( 74,161)   DRY( 74,162)   
    DRY( 74,163)   DRY( 74,164)   DRY( 74,165)   DRY( 74,166)   DRY( 74,167)   
    DRY( 74,168)   DRY( 74,169)   DRY( 74,170)   DRY( 74,171)   DRY( 74,172)   
    DRY( 74,173)   DRY( 74,174)   DRY( 74,175)   DRY( 74,176)   DRY( 74,177)   
    DRY( 74,178)   DRY( 74,179)   DRY( 74,180)   DRY( 74,181)   DRY( 74,182)   
    DRY( 74,183)   DRY( 74,184)   DRY( 74,185)   DRY( 74,186)   DRY( 74,187)   
    DRY( 74,188)   DRY( 74,189)   DRY( 74,190)   DRY( 74,191)   DRY( 74,192)   
    DRY( 74,193)   DRY( 74,194)   DRY( 74,195)   DRY( 74,196)   DRY( 74,197)   
    DRY( 74,198)   DRY( 74,199)   DRY( 74,200)   DRY( 74,201)   DRY( 74,202)   
    DRY( 74,203)   DRY( 74,204)   DRY( 74,205)   DRY( 74,206)   DRY( 74,207)   
    DRY( 74,208)   DRY( 74,209)   DRY( 74,210)   DRY( 74,211)   DRY( 74,212)   
    DRY( 74,213)   DRY( 74,214)   DRY( 74,215)   DRY( 74,216)   DRY( 74,217)   
    DRY( 74,218)   DRY( 74,219)   DRY( 74,220)   DRY( 75,  1)   DRY( 75,  2)   
    DRY( 75,  3)   DRY( 75,  4)   DRY( 75,  5)   DRY( 75,  6)   DRY( 75,  7)   
    DRY( 75,  8)   DRY( 75,  9)   DRY( 75, 10)   DRY( 75, 11)   DRY( 75, 12)   
    DRY( 75, 13)   DRY( 75, 14)   DRY( 75, 15)   DRY( 75, 16)   DRY( 75, 17)   
    DRY( 75, 18)   DRY( 75, 19)   DRY( 75, 20)   DRY( 75, 21)   DRY( 75, 22)   
    DRY( 75, 23)   DRY( 75, 24)   DRY( 75, 25)   DRY( 75, 26)   DRY( 75, 27)   
    DRY( 75, 28)   DRY( 75, 29)   DRY( 75, 30)   DRY( 75, 31)   DRY( 75, 32)   
    DRY( 75, 33)   DRY( 75, 34)   DRY( 75, 35)   DRY( 75, 36)   DRY( 75, 37)   
    DRY( 75, 38)   DRY( 75, 39)   DRY( 75, 40)   DRY( 75, 41)   DRY( 75, 42)   
    DRY( 75, 43)   DRY( 75, 44)   DRY( 75, 45)   DRY( 75, 46)   DRY( 75, 47)   
    DRY( 75, 48)   DRY( 75, 49)   DRY( 75, 50)   DRY( 75, 51)   DRY( 75, 52)   
    DRY( 75, 53)   DRY( 75, 54)   DRY( 75, 55)   DRY( 75, 56)   DRY( 75, 57)   
    DRY( 75, 58)   DRY( 75, 59)   DRY( 75, 60)   DRY( 75, 61)   DRY( 75, 62)   
    DRY( 75, 63)   DRY( 75, 64)   DRY( 75, 65)   DRY( 75, 66)   DRY( 75, 67)   
    DRY( 75, 68)   DRY( 75, 69)   DRY( 75, 70)   DRY( 75, 71)   DRY( 75, 72)   
    DRY( 75, 73)   DRY( 75, 74)   DRY( 75, 75)   DRY( 75, 76)   DRY( 75, 77)   
    DRY( 75, 78)   DRY( 75, 79)   DRY( 75, 80)   DRY( 75, 81)   DRY( 75, 82)   
    DRY( 75, 83)   DRY( 75, 84)   DRY( 75, 85)   DRY( 75, 86)   DRY( 75, 87)   
    DRY( 75, 88)   DRY( 75, 89)   DRY( 75, 90)   DRY( 75, 91)   DRY( 75, 92)   
    DRY( 75, 93)   DRY( 75, 94)   DRY( 75, 95)   DRY( 75, 96)   DRY( 75, 97)   
    DRY( 75, 98)   DRY( 75, 99)   DRY( 75,100)   DRY( 75,101)   DRY( 75,102)   
    DRY( 75,103)   DRY( 75,104)   DRY( 75,105)   DRY( 75,106)   DRY( 75,107)   
    DRY( 75,108)   DRY( 75,109)   DRY( 75,110)   DRY( 75,111)   DRY( 75,112)   
    DRY( 75,113)   DRY( 75,114)   DRY( 75,115)   DRY( 75,116)   DRY( 75,117)   
    DRY( 75,118)   DRY( 75,119)   DRY( 75,120)   DRY( 75,121)   DRY( 75,122)   
    DRY( 75,123)   DRY( 75,124)   DRY( 75,125)   DRY( 75,126)   DRY( 75,127)   
    DRY( 75,128)   DRY( 75,129)   DRY( 75,130)   DRY( 75,131)   DRY( 75,132)   
    DRY( 75,133)   DRY( 75,134)   DRY( 75,135)   DRY( 75,136)   DRY( 75,137)   
    DRY( 75,138)   DRY( 75,139)   DRY( 75,140)   DRY( 75,141)   DRY( 75,142)   
    DRY( 75,143)   DRY( 75,144)   DRY( 75,145)   DRY( 75,146)   DRY( 75,147)   
    DRY( 75,148)   DRY( 75,149)   DRY( 75,150)   DRY( 75,151)   DRY( 75,152)   
    DRY( 75,153)   DRY( 75,154)   DRY( 75,155)   DRY( 75,156)   DRY( 75,157)   
    DRY( 75,158)   DRY( 75,159)   DRY( 75,160)   DRY( 75,161)   DRY( 75,162)   
    DRY( 75,163)   DRY( 75,164)   DRY( 75,165)   DRY( 75,166)   DRY( 75,167)   
    DRY( 75,168)   DRY( 75,169)   DRY( 75,170)   DRY( 75,171)   DRY( 75,172)   
    DRY( 75,173)   DRY( 75,174)   DRY( 75,175)   DRY( 75,176)   DRY( 75,177)   
    DRY( 75,178)   DRY( 75,179)   DRY( 75,180)   DRY( 75,181)   DRY( 75,182)   
    DRY( 75,183)   DRY( 75,184)   DRY( 75,185)   DRY( 75,186)   DRY( 75,187)   
    DRY( 75,188)   DRY( 75,189)   DRY( 75,190)   DRY( 75,191)   DRY( 75,192)   
    DRY( 75,193)   DRY( 75,194)   DRY( 75,195)   DRY( 75,196)   DRY( 75,197)   
    DRY( 75,198)   DRY( 75,199)   DRY( 75,200)   DRY( 75,201)   DRY( 75,202)   
    DRY( 75,203)   DRY( 75,204)   DRY( 75,205)   DRY( 75,206)   DRY( 75,207)   
    DRY( 75,208)   DRY( 75,209)   DRY( 75,210)   DRY( 75,211)   DRY( 75,212)   
    DRY( 75,213)   DRY( 75,214)   DRY( 75,215)   DRY( 75,216)   DRY( 75,217)   
    DRY( 75,218)   DRY( 75,219)   DRY( 75,220)   DRY( 76,  1)   DRY( 76,  2)   
    DRY( 76,  3)   DRY( 76,  4)   DRY( 76,  5)   DRY( 76,  6)   DRY( 76,  7)   
    DRY( 76,  8)   DRY( 76,  9)   DRY( 76, 10)   DRY( 76, 11)   DRY( 76, 12)   
    DRY( 76, 13)   DRY( 76, 14)   DRY( 76, 15)   DRY( 76, 16)   DRY( 76, 17)   
    DRY( 76, 18)   DRY( 76, 19)   DRY( 76, 20)   DRY( 76, 21)   DRY( 76, 22)   
    DRY( 76, 23)   DRY( 76, 24)   DRY( 76, 25)   DRY( 76, 26)   DRY( 76, 27)   
    DRY( 76, 28)   DRY( 76, 29)   DRY( 76, 30)   DRY( 76, 31)   DRY( 76, 32)   
    DRY( 76, 33)   DRY( 76, 34)   DRY( 76, 35)   DRY( 76, 36)   DRY( 76, 37)   
    DRY( 76, 38)   DRY( 76, 39)   DRY( 76, 40)   DRY( 76, 41)   DRY( 76, 42)   
    DRY( 76, 43)   DRY( 76, 44)   DRY( 76, 45)   DRY( 76, 46)   DRY( 76, 47)   
    DRY( 76, 48)   DRY( 76, 49)   DRY( 76, 50)   DRY( 76, 51)   DRY( 76, 52)   
    DRY( 76, 53)   DRY( 76, 54)   DRY( 76, 55)   DRY( 76, 56)   DRY( 76, 57)   
    DRY( 76, 58)   DRY( 76, 59)   DRY( 76, 60)   DRY( 76, 61)   DRY( 76, 62)   
    DRY( 76, 63)   DRY( 76, 64)   DRY( 76, 65)   DRY( 76, 66)   DRY( 76, 67)   
    DRY( 76, 68)   DRY( 76, 69)   DRY( 76, 70)   DRY( 76, 71)   DRY( 76, 72)   
    DRY( 76, 73)   DRY( 76, 74)   DRY( 76, 75)   DRY( 76, 76)   DRY( 76, 77)   
    DRY( 76, 78)   DRY( 76, 79)   DRY( 76, 80)   DRY( 76, 81)   DRY( 76, 82)   
    DRY( 76, 83)   DRY( 76, 84)   DRY( 76, 85)   DRY( 76, 86)   DRY( 76, 87)   
    DRY( 76, 88)   DRY( 76, 89)   DRY( 76, 90)   DRY( 76, 91)   DRY( 76, 92)   
    DRY( 76, 93)   DRY( 76, 94)   DRY( 76, 95)   DRY( 76, 96)   DRY( 76, 97)   
    DRY( 76, 98)   DRY( 76, 99)   DRY( 76,100)   DRY( 76,101)   DRY( 76,102)   
    DRY( 76,103)   DRY( 76,104)   DRY( 76,105)   DRY( 76,106)   DRY( 76,107)   
    DRY( 76,108)   DRY( 76,109)   DRY( 76,110)   DRY( 76,111)   DRY( 76,112)   
    DRY( 76,113)   DRY( 76,114)   DRY( 76,115)   DRY( 76,116)   DRY( 76,117)   
    DRY( 76,118)   DRY( 76,119)   DRY( 76,120)   DRY( 76,121)   DRY( 76,122)   
    DRY( 76,123)   DRY( 76,124)   DRY( 76,125)   DRY( 76,126)   DRY( 76,127)   
    DRY( 76,128)   DRY( 76,129)   DRY( 76,130)   DRY( 76,131)   DRY( 76,132)   
    DRY( 76,133)   DRY( 76,134)   DRY( 76,135)   DRY( 76,136)   DRY( 76,137)   
    DRY( 76,138)   DRY( 76,139)   DRY( 76,140)   DRY( 76,141)   DRY( 76,142)   
    DRY( 76,143)   DRY( 76,144)   DRY( 76,145)   DRY( 76,146)   DRY( 76,147)   
    DRY( 76,148)   DRY( 76,149)   DRY( 76,150)   DRY( 76,151)   DRY( 76,152)   
    DRY( 76,153)   DRY( 76,154)   DRY( 76,155)   DRY( 76,156)   DRY( 76,157)   
    DRY( 76,158)   DRY( 76,159)   DRY( 76,160)   DRY( 76,161)   DRY( 76,162)   
    DRY( 76,163)   DRY( 76,164)   DRY( 76,165)   DRY( 76,166)   DRY( 76,167)   
    DRY( 76,168)   DRY( 76,169)   DRY( 76,170)   DRY( 76,171)   DRY( 76,172)   
    DRY( 76,173)   DRY( 76,174)   DRY( 76,175)   DRY( 76,176)   DRY( 76,177)   
    DRY( 76,178)   DRY( 76,179)   DRY( 76,180)   DRY( 76,181)   DRY( 76,182)   
    DRY( 76,183)   DRY( 76,184)   DRY( 76,185)   DRY( 76,186)   DRY( 76,187)   
    DRY( 76,188)   DRY( 76,189)   DRY( 76,190)   DRY( 76,191)   DRY( 76,192)   
    DRY( 76,193)   DRY( 76,194)   DRY( 76,195)   DRY( 76,196)   DRY( 76,197)   
    DRY( 76,198)   DRY( 76,199)   DRY( 76,200)   DRY( 76,201)   DRY( 76,202)   
    DRY( 76,203)   DRY( 76,204)   DRY( 76,205)   DRY( 76,206)   DRY( 76,207)   
    DRY( 76,208)   DRY( 76,209)   DRY( 76,210)   DRY( 76,211)   DRY( 76,212)   
    DRY( 76,213)   DRY( 76,214)   DRY( 76,215)   DRY( 76,216)   DRY( 76,217)   
    DRY( 76,218)   DRY( 76,219)   DRY( 76,220)   DRY( 77,  1)   DRY( 77,  2)   
    DRY( 77,  3)   DRY( 77,  4)   DRY( 77,  5)   DRY( 77,  6)   DRY( 77,  7)   
    DRY( 77,  8)   DRY( 77,  9)   DRY( 77, 10)   DRY( 77, 11)   DRY( 77, 12)   
    DRY( 77, 13)   DRY( 77, 14)   DRY( 77, 15)   DRY( 77, 16)   DRY( 77, 17)   
    DRY( 77, 18)   DRY( 77, 19)   DRY( 77, 20)   DRY( 77, 21)   DRY( 77, 22)   
    DRY( 77, 23)   DRY( 77, 24)   DRY( 77, 25)   DRY( 77, 26)   DRY( 77, 27)   
    DRY( 77, 28)   DRY( 77, 29)   DRY( 77, 30)   DRY( 77, 31)   DRY( 77, 32)   
    DRY( 77, 33)   DRY( 77, 34)   DRY( 77, 35)   DRY( 77, 36)   DRY( 77, 37)   
    DRY( 77, 38)   DRY( 77, 39)   DRY( 77, 40)   DRY( 77, 41)   DRY( 77, 42)   
    DRY( 77, 43)   DRY( 77, 44)   DRY( 77, 45)   DRY( 77, 46)   DRY( 77, 47)   
    DRY( 77, 48)   DRY( 77, 49)   DRY( 77, 50)   DRY( 77, 51)   DRY( 77, 52)   
    DRY( 77, 53)   DRY( 77, 54)   DRY( 77, 55)   DRY( 77, 56)   DRY( 77, 57)   
    DRY( 77, 58)   DRY( 77, 59)   DRY( 77, 60)   DRY( 77, 61)   DRY( 77, 62)   
    DRY( 77, 63)   DRY( 77, 64)   DRY( 77, 65)   DRY( 77, 66)   DRY( 77, 67)   
    DRY( 77, 68)   DRY( 77, 69)   DRY( 77, 70)   DRY( 77, 71)   DRY( 77, 72)   
    DRY( 77, 73)   DRY( 77, 74)   DRY( 77, 75)   DRY( 77, 76)   DRY( 77, 77)   
    DRY( 77, 78)   DRY( 77, 79)   DRY( 77, 80)   DRY( 77, 81)   DRY( 77, 82)   
    DRY( 77, 83)   DRY( 77, 84)   DRY( 77, 85)   DRY( 77, 86)   DRY( 77, 87)   
    DRY( 77, 88)   DRY( 77, 89)   DRY( 77, 90)   DRY( 77, 91)   DRY( 77, 92)   
    DRY( 77, 93)   DRY( 77, 94)   DRY( 77, 95)   DRY( 77, 96)   DRY( 77, 97)   
    DRY( 77, 98)   DRY( 77, 99)   DRY( 77,100)   DRY( 77,101)   DRY( 77,102)   
    DRY( 77,103)   DRY( 77,104)   DRY( 77,105)   DRY( 77,106)   DRY( 77,107)   
    DRY( 77,108)   DRY( 77,109)   DRY( 77,110)   DRY( 77,111)   DRY( 77,112)   
    DRY( 77,113)   DRY( 77,114)   DRY( 77,115)   DRY( 77,116)   DRY( 77,117)   
    DRY( 77,118)   DRY( 77,119)   DRY( 77,120)   DRY( 77,121)   DRY( 77,122)   
    DRY( 77,123)   DRY( 77,124)   DRY( 77,125)   DRY( 77,126)   DRY( 77,127)   
    DRY( 77,128)   DRY( 77,129)   DRY( 77,130)   DRY( 77,131)   DRY( 77,132)   
    DRY( 77,133)   DRY( 77,134)   DRY( 77,135)   DRY( 77,136)   DRY( 77,137)   
    DRY( 77,138)   DRY( 77,139)   DRY( 77,140)   DRY( 77,141)   DRY( 77,142)   
    DRY( 77,143)   DRY( 77,144)   DRY( 77,145)   DRY( 77,146)   DRY( 77,147)   
    DRY( 77,148)   DRY( 77,149)   DRY( 77,150)   DRY( 77,151)   DRY( 77,152)   
    DRY( 77,153)   DRY( 77,154)   DRY( 77,155)   DRY( 77,156)   DRY( 77,157)   
    DRY( 77,158)   DRY( 77,159)   DRY( 77,160)   DRY( 77,161)   DRY( 77,162)   
    DRY( 77,163)   DRY( 77,164)   DRY( 77,165)   DRY( 77,166)   DRY( 77,167)   
    DRY( 77,168)   DRY( 77,169)   DRY( 77,170)   DRY( 77,171)   DRY( 77,172)   
    DRY( 77,173)   DRY( 77,174)   DRY( 77,175)   DRY( 77,176)   DRY( 77,177)   
    DRY( 77,178)   DRY( 77,179)   DRY( 77,180)   DRY( 77,181)   DRY( 77,182)   
    DRY( 77,183)   DRY( 77,184)   DRY( 77,185)   DRY( 77,186)   DRY( 77,187)   
    DRY( 77,188)   DRY( 77,189)   DRY( 77,190)   DRY( 77,191)   DRY( 77,192)   
    DRY( 77,193)   DRY( 77,194)   DRY( 77,195)   DRY( 77,196)   DRY( 77,197)   
    DRY( 77,198)   DRY( 77,199)   DRY( 77,200)   DRY( 77,201)   DRY( 77,202)   
    DRY( 77,203)   DRY( 77,204)   DRY( 77,205)   DRY( 77,206)   DRY( 77,207)   
    DRY( 77,208)   DRY( 77,209)   DRY( 77,210)   DRY( 77,211)   DRY( 77,212)   
    DRY( 77,213)   DRY( 77,214)   DRY( 77,215)   DRY( 77,216)   DRY( 77,217)   
    DRY( 77,218)   DRY( 77,219)   DRY( 77,220)   DRY( 78,  1)   DRY( 78,  2)   
    DRY( 78,  3)   DRY( 78,  4)   DRY( 78,  5)   DRY( 78,  6)   DRY( 78,  7)   
    DRY( 78,  8)   DRY( 78,  9)   DRY( 78, 10)   DRY( 78, 11)   DRY( 78, 12)   
    DRY( 78, 13)   DRY( 78, 14)   DRY( 78, 15)   DRY( 78, 16)   DRY( 78, 17)   
    DRY( 78, 18)   DRY( 78, 19)   DRY( 78, 20)   DRY( 78, 21)   DRY( 78, 22)   
    DRY( 78, 23)   DRY( 78, 24)   DRY( 78, 25)   DRY( 78, 26)   DRY( 78, 27)   
    DRY( 78, 28)   DRY( 78, 29)   DRY( 78, 30)   DRY( 78, 31)   DRY( 78, 32)   
    DRY( 78, 33)   DRY( 78, 34)   DRY( 78, 35)   DRY( 78, 36)   DRY( 78, 37)   
    DRY( 78, 38)   DRY( 78, 39)   DRY( 78, 40)   DRY( 78, 41)   DRY( 78, 42)   
    DRY( 78, 43)   DRY( 78, 44)   DRY( 78, 45)   DRY( 78, 46)   DRY( 78, 47)   
    DRY( 78, 48)   DRY( 78, 49)   DRY( 78, 50)   DRY( 78, 51)   DRY( 78, 52)   
    DRY( 78, 53)   DRY( 78, 54)   DRY( 78, 55)   DRY( 78, 56)   DRY( 78, 57)   
    DRY( 78, 58)   DRY( 78, 59)   DRY( 78, 60)   DRY( 78, 61)   DRY( 78, 62)   
    DRY( 78, 63)   DRY( 78, 64)   DRY( 78, 65)   DRY( 78, 66)   DRY( 78, 67)   
    DRY( 78, 68)   DRY( 78, 69)   DRY( 78, 70)   DRY( 78, 71)   DRY( 78, 72)   
    DRY( 78, 73)   DRY( 78, 74)   DRY( 78, 75)   DRY( 78, 76)   DRY( 78, 77)   
    DRY( 78, 78)   DRY( 78, 79)   DRY( 78, 80)   DRY( 78, 81)   DRY( 78, 82)   
    DRY( 78, 83)   DRY( 78, 84)   DRY( 78, 85)   DRY( 78, 86)   DRY( 78, 87)   
    DRY( 78, 88)   DRY( 78, 89)   DRY( 78, 90)   DRY( 78, 91)   DRY( 78, 92)   
    DRY( 78, 93)   DRY( 78, 94)   DRY( 78, 95)   DRY( 78, 96)   DRY( 78, 97)   
    DRY( 78, 98)   DRY( 78, 99)   DRY( 78,100)   DRY( 78,101)   DRY( 78,102)   
    DRY( 78,103)   DRY( 78,104)   DRY( 78,105)   DRY( 78,106)   DRY( 78,107)   
    DRY( 78,108)   DRY( 78,109)   DRY( 78,110)   DRY( 78,111)   DRY( 78,112)   
    DRY( 78,113)   DRY( 78,114)   DRY( 78,115)   DRY( 78,116)   DRY( 78,117)   
    DRY( 78,118)   DRY( 78,119)   DRY( 78,120)   DRY( 78,121)   DRY( 78,122)   
    DRY( 78,123)   DRY( 78,124)   DRY( 78,125)   DRY( 78,126)   DRY( 78,127)   
    DRY( 78,128)   DRY( 78,129)   DRY( 78,130)   DRY( 78,131)   DRY( 78,132)   
    DRY( 78,133)   DRY( 78,134)   DRY( 78,135)   DRY( 78,136)   DRY( 78,137)   
    DRY( 78,138)   DRY( 78,139)   DRY( 78,140)   DRY( 78,141)   DRY( 78,142)   
    DRY( 78,143)   DRY( 78,144)   DRY( 78,145)   DRY( 78,146)   DRY( 78,147)   
    DRY( 78,148)   DRY( 78,149)   DRY( 78,150)   DRY( 78,151)   DRY( 78,152)   
    DRY( 78,153)   DRY( 78,154)   DRY( 78,155)   DRY( 78,156)   DRY( 78,157)   
    DRY( 78,158)   DRY( 78,159)   DRY( 78,160)   DRY( 78,161)   DRY( 78,162)   
    DRY( 78,163)   DRY( 78,164)   DRY( 78,165)   DRY( 78,166)   DRY( 78,167)   
    DRY( 78,168)   DRY( 78,169)   DRY( 78,170)   DRY( 78,171)   DRY( 78,172)   
    DRY( 78,173)   DRY( 78,174)   DRY( 78,175)   DRY( 78,176)   DRY( 78,177)   
    DRY( 78,178)   DRY( 78,179)   DRY( 78,180)   DRY( 78,181)   DRY( 78,182)   
    DRY( 78,183)   DRY( 78,184)   DRY( 78,185)   DRY( 78,186)   DRY( 78,187)   
    DRY( 78,188)   DRY( 78,189)   DRY( 78,190)   DRY( 78,191)   DRY( 78,192)   
    DRY( 78,193)   DRY( 78,194)   DRY( 78,195)   DRY( 78,196)   DRY( 78,197)   
    DRY( 78,198)   DRY( 78,199)   DRY( 78,200)   DRY( 78,201)   DRY( 78,202)   
    DRY( 78,203)   DRY( 78,204)   DRY( 78,205)   DRY( 78,206)   DRY( 78,207)   
    DRY( 78,208)   DRY( 78,209)   DRY( 78,210)   DRY( 78,211)   DRY( 78,212)   
    DRY( 78,213)   DRY( 78,214)   DRY( 78,215)   DRY( 78,216)   DRY( 78,217)   
    DRY( 78,218)   DRY( 78,219)   DRY( 78,220)   DRY( 79,  1)   DRY( 79,  2)   
    DRY( 79,  3)   DRY( 79,  4)   DRY( 79,  5)   DRY( 79,  6)   DRY( 79,  7)   
    DRY( 79,  8)   DRY( 79,  9)   DRY( 79, 10)   DRY( 79, 11)   DRY( 79, 12)   
    DRY( 79, 13)   DRY( 79, 14)   DRY( 79, 15)   DRY( 79, 16)   DRY( 79, 17)   
    DRY( 79, 18)   DRY( 79, 19)   DRY( 79, 20)   DRY( 79, 21)   DRY( 79, 22)   
    DRY( 79, 23)   DRY( 79, 24)   DRY( 79, 25)   DRY( 79, 26)   DRY( 79, 27)   
    DRY( 79, 28)   DRY( 79, 29)   DRY( 79, 30)   DRY( 79, 31)   DRY( 79, 32)   
    DRY( 79, 33)   DRY( 79, 34)   DRY( 79, 35)   DRY( 79, 36)   DRY( 79, 37)   
    DRY( 79, 38)   DRY( 79, 39)   DRY( 79, 40)   DRY( 79, 41)   DRY( 79, 42)   
    DRY( 79, 43)   DRY( 79, 44)   DRY( 79, 45)   DRY( 79, 46)   DRY( 79, 47)   
    DRY( 79, 48)   DRY( 79, 49)   DRY( 79, 50)   DRY( 79, 51)   DRY( 79, 52)   
    DRY( 79, 53)   DRY( 79, 54)   DRY( 79, 55)   DRY( 79, 56)   DRY( 79, 57)   
    DRY( 79, 58)   DRY( 79, 59)   DRY( 79, 60)   DRY( 79, 61)   DRY( 79, 62)   
    DRY( 79, 63)   DRY( 79, 64)   DRY( 79, 65)   DRY( 79, 66)   DRY( 79, 67)   
    DRY( 79, 68)   DRY( 79, 69)   DRY( 79, 70)   DRY( 79, 71)   DRY( 79, 72)   
    DRY( 79, 73)   DRY( 79, 74)   DRY( 79, 75)   DRY( 79, 76)   DRY( 79, 77)   
    DRY( 79, 78)   DRY( 79, 79)   DRY( 79, 80)   DRY( 79, 81)   DRY( 79, 82)   
    DRY( 79, 83)   DRY( 79, 84)   DRY( 79, 85)   DRY( 79, 86)   DRY( 79, 87)   
    DRY( 79, 88)   DRY( 79, 89)   DRY( 79, 90)   DRY( 79, 91)   DRY( 79, 92)   
    DRY( 79, 93)   DRY( 79, 94)   DRY( 79, 95)   DRY( 79, 96)   DRY( 79, 97)   
    DRY( 79, 98)   DRY( 79, 99)   DRY( 79,100)   DRY( 79,101)   DRY( 79,102)   
    DRY( 79,103)   DRY( 79,104)   DRY( 79,105)   DRY( 79,106)   DRY( 79,107)   
    DRY( 79,108)   DRY( 79,109)   DRY( 79,110)   DRY( 79,111)   DRY( 79,112)   
    DRY( 79,113)   DRY( 79,114)   DRY( 79,115)   DRY( 79,116)   DRY( 79,117)   
    DRY( 79,118)   DRY( 79,119)   DRY( 79,120)   DRY( 79,121)   DRY( 79,122)   
    DRY( 79,123)   DRY( 79,124)   DRY( 79,125)   DRY( 79,126)   DRY( 79,127)   
    DRY( 79,128)   DRY( 79,129)   DRY( 79,130)   DRY( 79,131)   DRY( 79,132)   
    DRY( 79,133)   DRY( 79,134)   DRY( 79,135)   DRY( 79,136)   DRY( 79,137)   
    DRY( 79,138)   DRY( 79,139)   DRY( 79,140)   DRY( 79,141)   DRY( 79,142)   
    DRY( 79,143)   DRY( 79,144)   DRY( 79,145)   DRY( 79,146)   DRY( 79,147)   
    DRY( 79,148)   DRY( 79,149)   DRY( 79,150)   DRY( 79,151)   DRY( 79,152)   
    DRY( 79,153)   DRY( 79,154)   DRY( 79,155)   DRY( 79,156)   DRY( 79,157)   
    DRY( 79,158)   DRY( 79,159)   DRY( 79,160)   DRY( 79,161)   DRY( 79,162)   
    DRY( 79,163)   DRY( 79,164)   DRY( 79,165)   DRY( 79,166)   DRY( 79,167)   
    DRY( 79,168)   DRY( 79,169)   DRY( 79,170)   DRY( 79,171)   DRY( 79,172)   
    DRY( 79,173)   DRY( 79,174)   DRY( 79,175)   DRY( 79,176)   DRY( 79,177)   
    DRY( 79,178)   DRY( 79,179)   DRY( 79,180)   DRY( 79,181)   DRY( 79,182)   
    DRY( 79,183)   DRY( 79,184)   DRY( 79,185)   DRY( 79,186)   DRY( 79,187)   
    DRY( 79,188)   DRY( 79,189)   DRY( 79,190)   DRY( 79,191)   DRY( 79,192)   
    DRY( 79,193)   DRY( 79,194)   DRY( 79,195)   DRY( 79,196)   DRY( 79,197)   
    DRY( 79,198)   DRY( 79,199)   DRY( 79,200)   DRY( 79,201)   DRY( 79,202)   
    DRY( 79,203)   DRY( 79,204)   DRY( 79,205)   DRY( 79,206)   DRY( 79,207)   
    DRY( 79,208)   DRY( 79,209)   DRY( 79,210)   DRY( 79,211)   DRY( 79,212)   
    DRY( 79,213)   DRY( 79,214)   DRY( 79,215)   DRY( 79,216)   DRY( 79,217)   
    DRY( 79,218)   DRY( 79,219)   DRY( 79,220)   DRY( 80,  1)   DRY( 80,  2)   
    DRY( 80,  3)   DRY( 80,  4)   DRY( 80,  5)   DRY( 80,  6)   DRY( 80,  7)   
    DRY( 80,  8)   DRY( 80,  9)   DRY( 80, 10)   DRY( 80, 11)   DRY( 80, 12)   
    DRY( 80, 13)   DRY( 80, 14)   DRY( 80, 15)   DRY( 80, 16)   DRY( 80, 17)   
    DRY( 80, 18)   DRY( 80, 19)   DRY( 80, 20)   DRY( 80, 21)   DRY( 80, 22)   
    DRY( 80, 23)   DRY( 80, 24)   DRY( 80, 25)   DRY( 80, 26)   DRY( 80, 27)   
    DRY( 80, 28)   DRY( 80, 29)   DRY( 80, 30)   DRY( 80, 31)   DRY( 80, 32)   
    DRY( 80, 33)   DRY( 80, 34)   DRY( 80, 35)   DRY( 80, 36)   DRY( 80, 37)   
    DRY( 80, 38)   DRY( 80, 39)   DRY( 80, 40)   DRY( 80, 41)   DRY( 80, 42)   
    DRY( 80, 43)   DRY( 80, 44)   DRY( 80, 45)   DRY( 80, 46)   DRY( 80, 47)   
    DRY( 80, 48)   DRY( 80, 49)   DRY( 80, 50)   DRY( 80, 51)   DRY( 80, 52)   
    DRY( 80, 53)   DRY( 80, 54)   DRY( 80, 55)   DRY( 80, 56)   DRY( 80, 57)   
    DRY( 80, 58)   DRY( 80, 59)   DRY( 80, 60)   DRY( 80, 61)   DRY( 80, 62)   
    DRY( 80, 63)   DRY( 80, 64)   DRY( 80, 65)   DRY( 80, 66)   DRY( 80, 67)   
    DRY( 80, 68)   DRY( 80, 69)   DRY( 80, 70)   DRY( 80, 71)   DRY( 80, 72)   
    DRY( 80, 73)   DRY( 80, 74)   DRY( 80, 75)   DRY( 80, 76)   DRY( 80, 77)   
    DRY( 80, 78)   DRY( 80, 79)   DRY( 80, 80)   DRY( 80, 81)   DRY( 80, 82)   
    DRY( 80, 83)   DRY( 80, 84)   DRY( 80, 85)   DRY( 80, 86)   DRY( 80, 87)   
    DRY( 80, 88)   DRY( 80, 89)   DRY( 80, 90)   DRY( 80, 91)   DRY( 80, 92)   
    DRY( 80, 93)   DRY( 80, 94)   DRY( 80, 95)   DRY( 80, 96)   DRY( 80, 97)   
    DRY( 80, 98)   DRY( 80, 99)   DRY( 80,100)   DRY( 80,101)   DRY( 80,102)   
    DRY( 80,103)   DRY( 80,104)   DRY( 80,105)   DRY( 80,106)   DRY( 80,107)   
    DRY( 80,108)   DRY( 80,109)   DRY( 80,110)   DRY( 80,111)   DRY( 80,112)   
    DRY( 80,113)   DRY( 80,114)   DRY( 80,115)   DRY( 80,116)   DRY( 80,117)   
    DRY( 80,118)   DRY( 80,119)   DRY( 80,120)   DRY( 80,121)   DRY( 80,122)   
    DRY( 80,123)   DRY( 80,124)   DRY( 80,125)   DRY( 80,126)   DRY( 80,127)   
    DRY( 80,128)   DRY( 80,129)   DRY( 80,130)   DRY( 80,131)   DRY( 80,132)   
    DRY( 80,133)   DRY( 80,134)   DRY( 80,135)   DRY( 80,136)   DRY( 80,137)   
    DRY( 80,138)   DRY( 80,139)   DRY( 80,140)   DRY( 80,141)   DRY( 80,142)   
    DRY( 80,143)   DRY( 80,144)   DRY( 80,145)   DRY( 80,146)   DRY( 80,147)   
    DRY( 80,148)   DRY( 80,149)   DRY( 80,150)   DRY( 80,151)   DRY( 80,152)   
    DRY( 80,153)   DRY( 80,154)   DRY( 80,155)   DRY( 80,156)   DRY( 80,157)   
    DRY( 80,158)   DRY( 80,159)   DRY( 80,160)   DRY( 80,161)   DRY( 80,162)   
    DRY( 80,163)   DRY( 80,164)   DRY( 80,165)   DRY( 80,166)   DRY( 80,167)   
    DRY( 80,168)   DRY( 80,169)   DRY( 80,170)   DRY( 80,171)   DRY( 80,172)   
    DRY( 80,173)   DRY( 80,174)   DRY( 80,175)   DRY( 80,176)   DRY( 80,177)   
    DRY( 80,178)   DRY( 80,179)   DRY( 80,180)   DRY( 80,181)   DRY( 80,182)   
    DRY( 80,183)   DRY( 80,184)   DRY( 80,185)   DRY( 80,186)   DRY( 80,187)   
    DRY( 80,188)   DRY( 80,189)   DRY( 80,190)   DRY( 80,191)   DRY( 80,192)   
    DRY( 80,193)   DRY( 80,194)   DRY( 80,195)   DRY( 80,196)   DRY( 80,197)   
    DRY( 80,198)   DRY( 80,199)   DRY( 80,200)   DRY( 80,201)   DRY( 80,202)   
    DRY( 80,203)   DRY( 80,204)   DRY( 80,205)   DRY( 80,206)   DRY( 80,207)   
    DRY( 80,208)   DRY( 80,209)   DRY( 80,210)   DRY( 80,211)   DRY( 80,212)   
    DRY( 80,213)   DRY( 80,214)   DRY( 80,215)   DRY( 80,216)   DRY( 80,217)   
    DRY( 80,218)   DRY( 80,219)   DRY( 80,220)   DRY( 81,  1)   DRY( 81,  2)   
    DRY( 81,  3)   DRY( 81,  4)   DRY( 81,  5)   DRY( 81,  6)   DRY( 81,  7)   
    DRY( 81,  8)   DRY( 81,  9)   DRY( 81, 10)   DRY( 81, 11)   DRY( 81, 12)   
    DRY( 81, 13)   DRY( 81, 14)   DRY( 81, 15)   DRY( 81, 16)   DRY( 81, 17)   
    DRY( 81, 18)   DRY( 81, 19)   DRY( 81, 20)   DRY( 81, 21)   DRY( 81, 22)   
    DRY( 81, 23)   DRY( 81, 24)   DRY( 81, 25)   DRY( 81, 26)   DRY( 81, 27)   
    DRY( 81, 28)   DRY( 81, 29)   DRY( 81, 30)   DRY( 81, 31)   DRY( 81, 32)   
    DRY( 81, 33)   DRY( 81, 34)   DRY( 81, 35)   DRY( 81, 36)   DRY( 81, 37)   
    DRY( 81, 38)   DRY( 81, 39)   DRY( 81, 40)   DRY( 81, 41)   DRY( 81, 42)   
    DRY( 81, 43)   DRY( 81, 44)   DRY( 81, 45)   DRY( 81, 46)   DRY( 81, 47)   
    DRY( 81, 48)   DRY( 81, 49)   DRY( 81, 50)   DRY( 81, 51)   DRY( 81, 52)   
    DRY( 81, 53)   DRY( 81, 54)   DRY( 81, 55)   DRY( 81, 56)   DRY( 81, 57)   
    DRY( 81, 58)   DRY( 81, 59)   DRY( 81, 60)   DRY( 81, 61)   DRY( 81, 62)   
    DRY( 81, 63)   DRY( 81, 64)   DRY( 81, 65)   DRY( 81, 66)   DRY( 81, 67)   
    DRY( 81, 68)   DRY( 81, 69)   DRY( 81, 70)   DRY( 81, 71)   DRY( 81, 72)   
    DRY( 81, 73)   DRY( 81, 74)   DRY( 81, 75)   DRY( 81, 76)   DRY( 81, 77)   
    DRY( 81, 78)   DRY( 81, 79)   DRY( 81, 80)   DRY( 81, 81)   DRY( 81, 82)   
    DRY( 81, 83)   DRY( 81, 84)   DRY( 81, 85)   DRY( 81, 86)   DRY( 81, 87)   
    DRY( 81, 88)   DRY( 81, 89)   DRY( 81, 90)   DRY( 81, 91)   DRY( 81, 92)   
    DRY( 81, 93)   DRY( 81, 94)   DRY( 81, 95)   DRY( 81, 96)   DRY( 81, 97)   
    DRY( 81, 98)   DRY( 81, 99)   DRY( 81,100)   DRY( 81,101)   DRY( 81,102)   
    DRY( 81,103)   DRY( 81,104)   DRY( 81,105)   DRY( 81,106)   DRY( 81,107)   
    DRY( 81,108)   DRY( 81,109)   DRY( 81,110)   DRY( 81,111)   DRY( 81,112)   
    DRY( 81,113)   DRY( 81,114)   DRY( 81,115)   DRY( 81,116)   DRY( 81,117)   
    DRY( 81,118)   DRY( 81,119)   DRY( 81,120)   DRY( 81,121)   DRY( 81,122)   
    DRY( 81,123)   DRY( 81,124)   DRY( 81,125)   DRY( 81,126)   DRY( 81,127)   
    DRY( 81,128)   DRY( 81,129)   DRY( 81,130)   DRY( 81,131)   DRY( 81,132)   
    DRY( 81,133)   DRY( 81,134)   DRY( 81,135)   DRY( 81,136)   DRY( 81,137)   
    DRY( 81,138)   DRY( 81,139)   DRY( 81,140)   DRY( 81,141)   DRY( 81,142)   
    DRY( 81,143)   DRY( 81,144)   DRY( 81,145)   DRY( 81,146)   DRY( 81,147)   
    DRY( 81,148)   DRY( 81,149)   DRY( 81,150)   DRY( 81,151)   DRY( 81,152)   
    DRY( 81,153)   DRY( 81,154)   DRY( 81,155)   DRY( 81,156)   DRY( 81,157)   
    DRY( 81,158)   DRY( 81,159)   DRY( 81,160)   DRY( 81,161)   DRY( 81,162)   
    DRY( 81,163)   DRY( 81,164)   DRY( 81,165)   DRY( 81,166)   DRY( 81,167)   
    DRY( 81,168)   DRY( 81,169)   DRY( 81,170)   DRY( 81,171)   DRY( 81,172)   
    DRY( 81,173)   DRY( 81,174)   DRY( 81,175)   DRY( 81,176)   DRY( 81,177)   
    DRY( 81,178)   DRY( 81,179)   DRY( 81,180)   DRY( 81,181)   DRY( 81,182)   
    DRY( 81,183)   DRY( 81,184)   DRY( 81,185)   DRY( 81,186)   DRY( 81,187)   
    DRY( 81,188)   DRY( 81,189)   DRY( 81,190)   DRY( 81,191)   DRY( 81,192)   
    DRY( 81,193)   DRY( 81,194)   DRY( 81,195)   DRY( 81,196)   DRY( 81,197)   
    DRY( 81,198)   DRY( 81,199)   DRY( 81,200)   DRY( 81,201)   DRY( 81,202)   
    DRY( 81,203)   DRY( 81,204)   DRY( 81,205)   DRY( 81,206)   DRY( 81,207)   
    DRY( 81,208)   DRY( 81,209)   DRY( 81,210)   DRY( 81,211)   DRY( 81,212)   
    DRY( 81,213)   DRY( 81,214)   DRY( 81,215)   DRY( 81,216)   DRY( 81,217)   
    DRY( 81,218)   DRY( 81,219)   DRY( 81,220)   DRY( 82,  1)   DRY( 82,  2)   
    DRY( 82,  3)   DRY( 82,  4)   DRY( 82,  5)   DRY( 82,  6)   DRY( 82,  7)   
    DRY( 82,  8)   DRY( 82,  9)   DRY( 82, 10)   DRY( 82, 11)   DRY( 82, 12)   
    DRY( 82, 13)   DRY( 82, 14)   DRY( 82, 15)   DRY( 82, 16)   DRY( 82, 17)   
    DRY( 82, 18)   DRY( 82, 19)   DRY( 82, 20)   DRY( 82, 21)   DRY( 82, 22)   
    DRY( 82, 23)   DRY( 82, 24)   DRY( 82, 25)   DRY( 82, 26)   DRY( 82, 27)   
    DRY( 82, 28)   DRY( 82, 29)   DRY( 82, 30)   DRY( 82, 31)   DRY( 82, 32)   
    DRY( 82, 33)   DRY( 82, 34)   DRY( 82, 35)   DRY( 82, 36)   DRY( 82, 37)   
    DRY( 82, 38)   DRY( 82, 39)   DRY( 82, 40)   DRY( 82, 41)   DRY( 82, 42)   
    DRY( 82, 43)   DRY( 82, 44)   DRY( 82, 45)   DRY( 82, 46)   DRY( 82, 47)   
    DRY( 82, 48)   DRY( 82, 49)   DRY( 82, 50)   DRY( 82, 51)   DRY( 82, 52)   
    DRY( 82, 53)   DRY( 82, 54)   DRY( 82, 55)   DRY( 82, 56)   DRY( 82, 57)   
    DRY( 82, 58)   DRY( 82, 59)   DRY( 82, 60)   DRY( 82, 61)   DRY( 82, 62)   
    DRY( 82, 63)   DRY( 82, 64)   DRY( 82, 65)   DRY( 82, 66)   DRY( 82, 67)   
    DRY( 82, 68)   DRY( 82, 69)   DRY( 82, 70)   DRY( 82, 71)   DRY( 82, 72)   
    DRY( 82, 73)   DRY( 82, 74)   DRY( 82, 75)   DRY( 82, 76)   DRY( 82, 77)   
    DRY( 82, 78)   DRY( 82, 79)   DRY( 82, 80)   DRY( 82, 81)   DRY( 82, 82)   
    DRY( 82, 83)   DRY( 82, 84)   DRY( 82, 85)   DRY( 82, 86)   DRY( 82, 87)   
    DRY( 82, 88)   DRY( 82, 89)   DRY( 82, 90)   DRY( 82, 91)   DRY( 82, 92)   
    DRY( 82, 93)   DRY( 82, 94)   DRY( 82, 95)   DRY( 82, 96)   DRY( 82, 97)   
    DRY( 82, 98)   DRY( 82, 99)   DRY( 82,100)   DRY( 82,101)   DRY( 82,102)   
    DRY( 82,103)   DRY( 82,104)   DRY( 82,105)   DRY( 82,106)   DRY( 82,107)   
    DRY( 82,108)   DRY( 82,109)   DRY( 82,110)   DRY( 82,111)   DRY( 82,112)   
    DRY( 82,113)   DRY( 82,114)   DRY( 82,115)   DRY( 82,116)   DRY( 82,117)   
    DRY( 82,118)   DRY( 82,119)   DRY( 82,120)   DRY( 82,121)   DRY( 82,122)   
    DRY( 82,123)   DRY( 82,124)   DRY( 82,125)   DRY( 82,126)   DRY( 82,127)   
    DRY( 82,128)   DRY( 82,129)   DRY( 82,130)   DRY( 82,131)   DRY( 82,132)   
    DRY( 82,133)   DRY( 82,134)   DRY( 82,135)   DRY( 82,136)   DRY( 82,137)   
    DRY( 82,138)   DRY( 82,139)   DRY( 82,140)   DRY( 82,141)   DRY( 82,142)   
    DRY( 82,143)   DRY( 82,144)   DRY( 82,145)   DRY( 82,146)   DRY( 82,147)   
    DRY( 82,148)   DRY( 82,149)   DRY( 82,150)   DRY( 82,151)   DRY( 82,152)   
    DRY( 82,153)   DRY( 82,154)   DRY( 82,155)   DRY( 82,156)   DRY( 82,157)   
    DRY( 82,158)   DRY( 82,159)   DRY( 82,160)   DRY( 82,161)   DRY( 82,162)   
    DRY( 82,163)   DRY( 82,164)   DRY( 82,165)   DRY( 82,166)   DRY( 82,167)   
    DRY( 82,168)   DRY( 82,169)   DRY( 82,170)   DRY( 82,171)   DRY( 82,172)   
    DRY( 82,173)   DRY( 82,174)   DRY( 82,175)   DRY( 82,176)   DRY( 82,177)   
    DRY( 82,178)   DRY( 82,179)   DRY( 82,180)   DRY( 82,181)   DRY( 82,182)   
    DRY( 82,183)   DRY( 82,184)   DRY( 82,185)   DRY( 82,186)   DRY( 82,187)   
    DRY( 82,188)   DRY( 82,189)   DRY( 82,190)   DRY( 82,191)   DRY( 82,192)   
    DRY( 82,193)   DRY( 82,194)   DRY( 82,195)   DRY( 82,196)   DRY( 82,197)   
    DRY( 82,198)   DRY( 82,199)   DRY( 82,200)   DRY( 82,201)   DRY( 82,202)   
    DRY( 82,203)   DRY( 82,204)   DRY( 82,205)   DRY( 82,206)   DRY( 82,207)   
    DRY( 82,208)   DRY( 82,209)   DRY( 82,210)   DRY( 82,211)   DRY( 82,212)   
    DRY( 82,213)   DRY( 82,214)   DRY( 82,215)   DRY( 82,216)   DRY( 82,217)   
    DRY( 82,218)   DRY( 82,219)   DRY( 82,220)   DRY( 83,  1)   DRY( 83,  2)   
    DRY( 83,  3)   DRY( 83,  4)   DRY( 83,  5)   DRY( 83,  6)   DRY( 83,  7)   
    DRY( 83,  8)   DRY( 83,  9)   DRY( 83, 10)   DRY( 83, 11)   DRY( 83, 12)   
    DRY( 83, 13)   DRY( 83, 14)   DRY( 83, 15)   DRY( 83, 16)   DRY( 83, 17)   
    DRY( 83, 18)   DRY( 83, 19)   DRY( 83, 20)   DRY( 83, 21)   DRY( 83, 22)   
    DRY( 83, 23)   DRY( 83, 24)   DRY( 83, 25)   DRY( 83, 26)   DRY( 83, 27)   
    DRY( 83, 28)   DRY( 83, 29)   DRY( 83, 30)   DRY( 83, 31)   DRY( 83, 32)   
    DRY( 83, 33)   DRY( 83, 34)   DRY( 83, 35)   DRY( 83, 36)   DRY( 83, 37)   
    DRY( 83, 38)   DRY( 83, 39)   DRY( 83, 40)   DRY( 83, 41)   DRY( 83, 42)   
    DRY( 83, 43)   DRY( 83, 44)   DRY( 83, 45)   DRY( 83, 46)   DRY( 83, 47)   
    DRY( 83, 48)   DRY( 83, 49)   DRY( 83, 50)   DRY( 83, 51)   DRY( 83, 52)   
    DRY( 83, 53)   DRY( 83, 54)   DRY( 83, 55)   DRY( 83, 56)   DRY( 83, 57)   
    DRY( 83, 58)   DRY( 83, 59)   DRY( 83, 60)   DRY( 83, 61)   DRY( 83, 62)   
    DRY( 83, 63)   DRY( 83, 64)   DRY( 83, 65)   DRY( 83, 66)   DRY( 83, 67)   
    DRY( 83, 68)   DRY( 83, 69)   DRY( 83, 70)   DRY( 83, 71)   DRY( 83, 72)   
    DRY( 83, 73)   DRY( 83, 74)   DRY( 83, 75)   DRY( 83, 76)   DRY( 83, 77)   
    DRY( 83, 78)   DRY( 83, 79)   DRY( 83, 80)   DRY( 83, 81)   DRY( 83, 82)   
    DRY( 83, 83)   DRY( 83, 84)   DRY( 83, 85)   DRY( 83, 86)   DRY( 83, 87)   
    DRY( 83, 88)   DRY( 83, 89)   DRY( 83, 90)   DRY( 83, 91)   DRY( 83, 92)   
    DRY( 83, 93)   DRY( 83, 94)   DRY( 83, 95)   DRY( 83, 96)   DRY( 83, 97)   
    DRY( 83, 98)   DRY( 83, 99)   DRY( 83,100)   DRY( 83,101)   DRY( 83,102)   
    DRY( 83,103)   DRY( 83,104)   DRY( 83,105)   DRY( 83,106)   DRY( 83,107)   
    DRY( 83,108)   DRY( 83,109)   DRY( 83,110)   DRY( 83,111)   DRY( 83,112)   
    DRY( 83,113)   DRY( 83,114)   DRY( 83,115)   DRY( 83,116)   DRY( 83,117)   
    DRY( 83,118)   DRY( 83,119)   DRY( 83,120)   DRY( 83,121)   DRY( 83,122)   
    DRY( 83,123)   DRY( 83,124)   DRY( 83,125)   DRY( 83,126)   DRY( 83,127)   
    DRY( 83,128)   DRY( 83,129)   DRY( 83,130)   DRY( 83,131)   DRY( 83,132)   
    DRY( 83,133)   DRY( 83,134)   DRY( 83,135)   DRY( 83,136)   DRY( 83,137)   
    DRY( 83,138)   DRY( 83,139)   DRY( 83,140)   DRY( 83,141)   DRY( 83,142)   
    DRY( 83,143)   DRY( 83,144)   DRY( 83,145)   DRY( 83,146)   DRY( 83,147)   
    DRY( 83,148)   DRY( 83,149)   DRY( 83,150)   DRY( 83,151)   DRY( 83,152)   
    DRY( 83,153)   DRY( 83,154)   DRY( 83,155)   DRY( 83,156)   DRY( 83,157)   
    DRY( 83,158)   DRY( 83,159)   DRY( 83,160)   DRY( 83,161)   DRY( 83,162)   
    DRY( 83,163)   DRY( 83,164)   DRY( 83,165)   DRY( 83,166)   DRY( 83,167)   
    DRY( 83,168)   DRY( 83,169)   DRY( 83,170)   DRY( 83,171)   DRY( 83,172)   
    DRY( 83,173)   DRY( 83,174)   DRY( 83,175)   DRY( 83,176)   DRY( 83,177)   
    DRY( 83,178)   DRY( 83,179)   DRY( 83,180)   DRY( 83,181)   DRY( 83,182)   
    DRY( 83,183)   DRY( 83,184)   DRY( 83,185)   DRY( 83,186)   DRY( 83,187)   
    DRY( 83,188)   DRY( 83,189)   DRY( 83,190)   DRY( 83,191)   DRY( 83,192)   
    DRY( 83,193)   DRY( 83,194)   DRY( 83,195)   DRY( 83,196)   DRY( 83,197)   
    DRY( 83,198)   DRY( 83,199)   DRY( 83,200)   DRY( 83,201)   DRY( 83,202)   
    DRY( 83,203)   DRY( 83,204)   DRY( 83,205)   DRY( 83,206)   DRY( 83,207)   
    DRY( 83,208)   DRY( 83,209)   DRY( 83,210)   DRY( 83,211)   DRY( 83,212)   
    DRY( 83,213)   DRY( 83,214)   DRY( 83,215)   DRY( 83,216)   DRY( 83,217)   
    DRY( 83,218)   DRY( 83,219)   DRY( 83,220)   DRY( 84,  1)   DRY( 84,  2)   
    DRY( 84,  3)   DRY( 84,  4)   DRY( 84,  5)   DRY( 84,  6)   DRY( 84,  7)   
    DRY( 84,  8)   DRY( 84,  9)   DRY( 84, 10)   DRY( 84, 11)   DRY( 84, 12)   
    DRY( 84, 13)   DRY( 84, 14)   DRY( 84, 15)   DRY( 84, 16)   DRY( 84, 17)   
    DRY( 84, 18)   DRY( 84, 19)   DRY( 84, 20)   DRY( 84, 21)   DRY( 84, 22)   
    DRY( 84, 23)   DRY( 84, 24)   DRY( 84, 25)   DRY( 84, 26)   DRY( 84, 27)   
    DRY( 84, 28)   DRY( 84, 29)   DRY( 84, 30)   DRY( 84, 31)   DRY( 84, 32)   
    DRY( 84, 33)   DRY( 84, 34)   DRY( 84, 35)   DRY( 84, 36)   DRY( 84, 37)   
    DRY( 84, 38)   DRY( 84, 39)   DRY( 84, 40)   DRY( 84, 41)   DRY( 84, 42)   
    DRY( 84, 43)   DRY( 84, 44)   DRY( 84, 45)   DRY( 84, 46)   DRY( 84, 47)   
    DRY( 84, 48)   DRY( 84, 49)   DRY( 84, 50)   DRY( 84, 51)   DRY( 84, 52)   
    DRY( 84, 53)   DRY( 84, 54)   DRY( 84, 55)   DRY( 84, 56)   DRY( 84, 57)   
    DRY( 84, 58)   DRY( 84, 59)   DRY( 84, 60)   DRY( 84, 61)   DRY( 84, 62)   
    DRY( 84, 63)   DRY( 84, 64)   DRY( 84, 65)   DRY( 84, 66)   DRY( 84, 67)   
    DRY( 84, 68)   DRY( 84, 69)   DRY( 84, 70)   DRY( 84, 71)   DRY( 84, 72)   
    DRY( 84, 73)   DRY( 84, 74)   DRY( 84, 75)   DRY( 84, 76)   DRY( 84, 77)   
    DRY( 84, 78)   DRY( 84, 79)   DRY( 84, 80)   DRY( 84, 81)   DRY( 84, 82)   
    DRY( 84, 83)   DRY( 84, 84)   DRY( 84, 85)   DRY( 84, 86)   DRY( 84, 87)   
    DRY( 84, 88)   DRY( 84, 89)   DRY( 84, 90)   DRY( 84, 91)   DRY( 84, 92)   
    DRY( 84, 93)   DRY( 84, 94)   DRY( 84, 95)   DRY( 84, 96)   DRY( 84, 97)   
    DRY( 84, 98)   DRY( 84, 99)   DRY( 84,100)   DRY( 84,101)   DRY( 84,102)   
    DRY( 84,103)   DRY( 84,104)   DRY( 84,105)   DRY( 84,106)   DRY( 84,107)   
    DRY( 84,108)   DRY( 84,109)   DRY( 84,110)   DRY( 84,111)   DRY( 84,112)   
    DRY( 84,113)   DRY( 84,114)   DRY( 84,115)   DRY( 84,116)   DRY( 84,117)   
    DRY( 84,118)   DRY( 84,119)   DRY( 84,120)   DRY( 84,121)   DRY( 84,122)   
    DRY( 84,123)   DRY( 84,124)   DRY( 84,125)   DRY( 84,126)   DRY( 84,127)   
    DRY( 84,128)   DRY( 84,129)   DRY( 84,130)   DRY( 84,131)   DRY( 84,132)   
    DRY( 84,133)   DRY( 84,134)   DRY( 84,135)   DRY( 84,136)   DRY( 84,137)   
    DRY( 84,138)   DRY( 84,139)   DRY( 84,140)   DRY( 84,141)   DRY( 84,142)   
    DRY( 84,143)   DRY( 84,144)   DRY( 84,145)   DRY( 84,146)   DRY( 84,147)   
    DRY( 84,148)   DRY( 84,149)   DRY( 84,150)   DRY( 84,151)   DRY( 84,152)   
    DRY( 84,153)   DRY( 84,154)   DRY( 84,155)   DRY( 84,156)   DRY( 84,157)   
    DRY( 84,158)   DRY( 84,159)   DRY( 84,160)   DRY( 84,161)   DRY( 84,162)   
    DRY( 84,163)   DRY( 84,164)   DRY( 84,165)   DRY( 84,166)   DRY( 84,167)   
    DRY( 84,168)   DRY( 84,169)   DRY( 84,170)   DRY( 84,171)   DRY( 84,172)   
    DRY( 84,173)   DRY( 84,174)   DRY( 84,175)   DRY( 84,176)   DRY( 84,177)   
    DRY( 84,178)   DRY( 84,179)   DRY( 84,180)   DRY( 84,181)   DRY( 84,182)   
    DRY( 84,183)   DRY( 84,184)   DRY( 84,185)   DRY( 84,186)   DRY( 84,187)   
    DRY( 84,188)   DRY( 84,189)   DRY( 84,190)   DRY( 84,191)   DRY( 84,192)   
    DRY( 84,193)   DRY( 84,194)   DRY( 84,195)   DRY( 84,196)   DRY( 84,197)   
    DRY( 84,198)   DRY( 84,199)   DRY( 84,200)   DRY( 84,201)   DRY( 84,202)   
    DRY( 84,203)   DRY( 84,204)   DRY( 84,205)   DRY( 84,206)   DRY( 84,207)   
    DRY( 84,208)   DRY( 84,209)   DRY( 84,210)   DRY( 84,211)   DRY( 84,212)   
    DRY( 84,213)   DRY( 84,214)   DRY( 84,215)   DRY( 84,216)   DRY( 84,217)   
    DRY( 84,218)   DRY( 84,219)   DRY( 84,220)   

 CELL CONVERSIONS FOR ITER.=  4  LAYER= 27  STEP=  1  PERIOD=   1   (ROW,COL)
    DRY( 79,  2)   DRY( 79,  3)   DRY( 79,  4)   DRY( 79,  5)   DRY( 79,  6)   
    DRY( 79,  7)   DRY( 79,  8)   DRY( 79,  9)   DRY( 79, 10)   DRY( 79, 11)   
    DRY( 79, 12)   DRY( 79, 13)   DRY( 79, 14)   DRY( 79, 15)   DRY( 79, 16)   
    DRY( 79, 17)   DRY( 79, 44)   DRY( 79, 45)   DRY( 79, 46)   DRY( 79, 47)   
    DRY( 79, 48)   DRY( 79, 49)   DRY( 79, 50)   DRY( 79, 51)   DRY( 80,  1)   
    DRY( 80,  2)   DRY( 80,  3)   DRY( 80,  4)   DRY( 80,  5)   DRY( 80,  6)   
    DRY( 80,  7)   DRY( 80,  8)   DRY( 80,  9)   DRY( 80, 10)   DRY( 80, 11)   
    DRY( 80, 12)   DRY( 80, 13)   DRY( 80, 14)   DRY( 80, 15)   DRY( 80, 16)   
    DRY( 80, 17)   DRY( 80, 18)   DRY( 80, 19)   DRY( 80, 20)   DRY( 80, 21)   
    DRY( 80, 22)   DRY( 80, 23)   DRY( 80, 24)   DRY( 80, 25)   DRY( 80, 26)   
    DRY( 80, 27)   DRY( 80, 28)   DRY( 80, 29)   DRY( 80, 30)   DRY( 80, 31)   
    DRY( 80, 32)   DRY( 80, 33)   DRY( 80, 34)   DRY( 80, 35)   DRY( 80, 36)   
    DRY( 80, 37)   DRY( 80, 38)   DRY( 80, 39)   DRY( 80, 40)   DRY( 80, 41)   
    DRY( 80, 42)   DRY( 80, 43)   DRY( 80, 44)   DRY( 80, 45)   DRY( 80, 46)   
    DRY( 80, 47)   DRY( 80, 48)   DRY( 80, 49)   DRY( 80, 50)   DRY( 80, 51)   
    DRY( 80, 52)   DRY( 80, 53)   DRY( 80, 54)   DRY( 80, 55)   DRY( 80, 56)   
    DRY( 80, 57)   DRY( 80, 58)   DRY( 80, 59)   DRY( 80, 60)   DRY( 80, 61)   
    DRY( 80, 62)   DRY( 80, 63)   DRY( 80, 64)   DRY( 80, 65)   DRY( 80, 66)   
    DRY( 80, 67)   DRY( 80, 68)   DRY( 80, 69)   DRY( 80, 70)   DRY( 80, 71)   
    DRY( 80, 72)   DRY( 80, 73)   DRY( 80, 74)   DRY( 80, 75)   DRY( 80, 76)   
    DRY( 80, 77)   DRY( 80, 78)   DRY( 80, 79)   DRY( 80, 80)   DRY( 80, 81)   
    DRY( 80, 82)   DRY( 80, 83)   DRY( 80, 84)   DRY( 80, 85)   DRY( 80, 86)   
    DRY( 80, 87)   DRY( 80, 88)   DRY( 80, 89)   DRY( 80, 90)   DRY( 80, 91)   
    DRY( 80, 92)   DRY( 80, 93)   DRY( 80, 94)   DRY( 80, 95)   DRY( 80, 96)   
    DRY( 80, 97)   DRY( 80, 98)   DRY( 80, 99)   DRY( 80,100)   DRY( 80,101)   
    DRY( 80,102)   DRY( 80,103)   DRY( 80,104)   DRY( 80,105)   DRY( 80,106)   
    DRY( 80,107)   DRY( 80,108)   DRY( 80,109)   DRY( 80,110)   DRY( 80,111)   
    DRY( 80,112)   DRY( 80,113)   DRY( 80,114)   DRY( 80,115)   DRY( 80,116)   
    DRY( 80,117)   DRY( 80,118)   DRY( 80,119)   DRY( 80,120)   DRY( 80,121)   
    DRY( 80,122)   DRY( 80,123)   DRY( 80,124)   DRY( 80,125)   DRY( 80,126)   
    DRY( 80,127)   DRY( 80,128)   DRY( 80,129)   DRY( 80,130)   DRY( 80,131)   
    DRY( 80,132)   DRY( 80,133)   DRY( 80,134)   DRY( 80,135)   DRY( 80,136)   
    DRY( 80,137)   DRY( 80,138)   DRY( 80,139)   DRY( 80,140)   DRY( 80,141)   
    DRY( 80,142)   DRY( 80,143)   DRY( 80,144)   DRY( 80,145)   DRY( 80,146)   
    DRY( 80,147)   DRY( 80,148)   DRY( 80,149)   DRY( 80,150)   DRY( 80,151)   
    DRY( 80,152)   DRY( 80,153)   DRY( 80,154)   DRY( 80,155)   DRY( 80,156)   
    DRY( 80,157)   DRY( 80,158)   DRY( 80,159)   DRY( 80,160)   DRY( 80,161)   
    DRY( 80,162)   DRY( 80,163)   DRY( 80,164)   DRY( 80,165)   DRY( 80,166)   
    DRY( 80,167)   DRY( 80,168)   DRY( 80,169)   DRY( 80,170)   DRY( 80,171)   
    DRY( 80,172)   DRY( 80,173)   DRY( 80,174)   DRY( 80,175)   DRY( 81,  1)   
    DRY( 81,  2)   DRY( 81,  3)   DRY( 81,  4)   DRY( 81,  5)   DRY( 81,  6)   
    DRY( 81,  7)   DRY( 81,  8)   DRY( 81,  9)   DRY( 81, 10)   DRY( 81, 11)   
    DRY( 81, 12)   DRY( 81, 13)   DRY( 81, 14)   DRY( 81, 15)   DRY( 81, 16)   
    DRY( 81, 17)   DRY( 81, 18)   DRY( 81, 19)   DRY( 81, 20)   DRY( 81, 21)   
    DRY( 81, 22)   DRY( 81, 23)   DRY( 81, 24)   DRY( 81, 25)   DRY( 81, 26)   
    DRY( 81, 27)   DRY( 81, 28)   DRY( 81, 29)   DRY( 81, 30)   DRY( 81, 31)   
    DRY( 81, 32)   DRY( 81, 33)   DRY( 81, 34)   DRY( 81, 35)   DRY( 81, 36)   
    DRY( 81, 37)   DRY( 81, 38)   DRY( 81, 39)   DRY( 81, 40)   DRY( 81, 41)   
    DRY( 81, 42)   DRY( 81, 43)   DRY( 81, 44)   DRY( 81, 45)   DRY( 81, 46)   
    DRY( 81, 47)   DRY( 81, 48)   DRY( 81, 49)   DRY( 81, 50)   DRY( 81, 51)   
    DRY( 81, 52)   DRY( 81, 53)   DRY( 81, 54)   DRY( 81, 55)   DRY( 81, 56)   
    DRY( 81, 57)   DRY( 81, 58)   DRY( 81, 59)   DRY( 81, 60)   DRY( 81, 61)   
    DRY( 81, 62)   DRY( 81, 63)   DRY( 81, 64)   DRY( 81, 65)   DRY( 81, 66)   
    DRY( 81, 67)   DRY( 81, 68)   DRY( 81, 69)   DRY( 81, 70)   DRY( 81, 71)   
    DRY( 81, 72)   DRY( 81, 73)   DRY( 81, 74)   DRY( 81, 75)   DRY( 81, 76)   
    DRY( 81, 77)   DRY( 81, 78)   DRY( 81, 79)   DRY( 81, 80)   DRY( 81, 81)   
    DRY( 81, 82)   DRY( 81, 83)   DRY( 81, 84)   DRY( 81, 85)   DRY( 81, 86)   
    DRY( 81, 87)   DRY( 81, 88)   DRY( 81, 89)   DRY( 81, 90)   DRY( 81, 91)   
    DRY( 81, 92)   DRY( 81, 93)   DRY( 81, 94)   DRY( 81, 95)   DRY( 81, 96)   
    DRY( 81, 97)   DRY( 81, 98)   DRY( 81, 99)   DRY( 81,100)   DRY( 81,101)   
    DRY( 81,102)   DRY( 81,103)   DRY( 81,104)   DRY( 81,105)   DRY( 81,106)   
    DRY( 81,107)   DRY( 81,108)   DRY( 81,109)   DRY( 81,110)   DRY( 81,111)   
    DRY( 81,112)   DRY( 81,113)   DRY( 81,114)   DRY( 81,115)   DRY( 81,116)   
    DRY( 81,117)   DRY( 81,118)   DRY( 81,119)   DRY( 81,120)   DRY( 81,121)   
    DRY( 81,122)   DRY( 81,123)   DRY( 81,124)   DRY( 81,125)   DRY( 81,126)   
    DRY( 81,127)   DRY( 81,128)   DRY( 81,129)   DRY( 81,130)   DRY( 81,131)   
    DRY( 81,132)   DRY( 81,133)   DRY( 81,134)   DRY( 81,135)   DRY( 81,136)   
    DRY( 81,137)   DRY( 81,138)   DRY( 81,139)   DRY( 81,140)   DRY( 81,141)   
    DRY( 81,142)   DRY( 81,143)   DRY( 81,144)   DRY( 81,145)   DRY( 81,146)   
    DRY( 81,147)   DRY( 81,148)   DRY( 81,149)   DRY( 81,150)   DRY( 81,151)   
    DRY( 81,152)   DRY( 81,153)   DRY( 81,154)   DRY( 81,155)   DRY( 81,156)   
    DRY( 81,157)   DRY( 81,158)   DRY( 81,159)   DRY( 81,160)   DRY( 81,161)   
    DRY( 81,162)   DRY( 81,163)   DRY( 81,164)   DRY( 81,165)   DRY( 81,166)   
    DRY( 81,167)   DRY( 81,168)   DRY( 81,169)   DRY( 81,170)   DRY( 81,171)   
    DRY( 81,172)   DRY( 81,173)   DRY( 81,174)   DRY( 81,175)   DRY( 81,176)   
    DRY( 81,177)   DRY( 81,178)   DRY( 81,179)   DRY( 81,180)   DRY( 81,181)   
    DRY( 81,182)   DRY( 81,183)   DRY( 81,184)   DRY( 81,185)   DRY( 81,186)   
    DRY( 81,187)   DRY( 81,188)   DRY( 81,189)   DRY( 81,190)   DRY( 81,191)   
    DRY( 81,192)   DRY( 81,193)   DRY( 81,194)   DRY( 81,195)   DRY( 81,196)   
    DRY( 81,197)   DRY( 81,198)   DRY( 81,199)   DRY( 81,200)   DRY( 81,201)   
    DRY( 81,202)   DRY( 81,203)   DRY( 81,204)   DRY( 81,205)   DRY( 81,206)   
    DRY( 81,207)   DRY( 81,208)   DRY( 81,209)   DRY( 81,210)   DRY( 81,211)   
    DRY( 81,212)   DRY( 81,213)   DRY( 81,214)   DRY( 81,215)   DRY( 81,216)   
    DRY( 81,217)   DRY( 81,218)   DRY( 81,219)   DRY( 81,220)   DRY( 82,  1)   
    DRY( 82,  2)   DRY( 82,  3)   DRY( 82,  4)   DRY( 82,  5)   DRY( 82,  6)   
    DRY( 82,  7)   DRY( 82,  8)   DRY( 82,  9)   DRY( 82, 10)   DRY( 82, 11)   
    DRY( 82, 12)   DRY( 82, 13)   DRY( 82, 14)   DRY( 82, 15)   DRY( 82, 16)   
    DRY( 82, 17)   DRY( 82, 18)   DRY( 82, 19)   DRY( 82, 20)   DRY( 82, 21)   
    DRY( 82, 22)   DRY( 82, 23)   DRY( 82, 24)   DRY( 82, 25)   DRY( 82, 26)   
    DRY( 82, 27)   DRY( 82, 28)   DRY( 82, 29)   DRY( 82, 30)   DRY( 82, 31)   
    DRY( 82, 32)   DRY( 82, 33)   DRY( 82, 34)   DRY( 82, 35)   DRY( 82, 36)   
    DRY( 82, 37)   DRY( 82, 38)   DRY( 82, 39)   DRY( 82, 40)   DRY( 82, 41)   
    DRY( 82, 42)   DRY( 82, 43)   DRY( 82, 44)   DRY( 82, 45)   DRY( 82, 46)   
    DRY( 82, 47)   DRY( 82, 48)   DRY( 82, 49)   DRY( 82, 50)   DRY( 82, 51)   
    DRY( 82, 52)   DRY( 82, 53)   DRY( 82, 54)   DRY( 82, 55)   DRY( 82, 56)   
    DRY( 82, 57)   DRY( 82, 58)   DRY( 82, 59)   DRY( 82, 60)   DRY( 82, 61)   
    DRY( 82, 62)   DRY( 82, 63)   DRY( 82, 64)   DRY( 82, 65)   DRY( 82, 66)   
    DRY( 82, 67)   DRY( 82, 68)   DRY( 82, 69)   DRY( 82, 70)   DRY( 82, 71)   
    DRY( 82, 72)   DRY( 82, 73)   DRY( 82, 74)   DRY( 82, 75)   DRY( 82, 76)   
    DRY( 82, 77)   DRY( 82, 78)   DRY( 82, 79)   DRY( 82, 80)   DRY( 82, 81)   
    DRY( 82, 82)   DRY( 82, 83)   DRY( 82, 84)   DRY( 82, 85)   DRY( 82, 86)   
    DRY( 82, 87)   DRY( 82, 88)   DRY( 82, 89)   DRY( 82, 90)   DRY( 82, 91)   
    DRY( 82, 92)   DRY( 82, 93)   DRY( 82, 94)   DRY( 82, 95)   DRY( 82, 96)   
    DRY( 82, 97)   DRY( 82, 98)   DRY( 82, 99)   DRY( 82,100)   DRY( 82,101)   
    DRY( 82,102)   DRY( 82,103)   DRY( 82,104)   DRY( 82,105)   DRY( 82,106)   
    DRY( 82,107)   DRY( 82,108)   DRY( 82,109)   DRY( 82,110)   DRY( 82,111)   
    DRY( 82,112)   DRY( 82,113)   DRY( 82,114)   DRY( 82,115)   DRY( 82,116)   
    DRY( 82,117)   DRY( 82,118)   DRY( 82,119)   DRY( 82,120)   DRY( 82,121)   
    DRY( 82,122)   DRY( 82,123)   DRY( 82,124)   DRY( 82,125)   DRY( 82,126)   
    DRY( 82,127)   DRY( 82,128)   DRY( 82,129)   DRY( 82,130)   DRY( 82,131)   
    DRY( 82,132)   DRY( 82,133)   DRY( 82,134)   DRY( 82,135)   DRY( 82,136)   
    DRY( 82,137)   DRY( 82,138)   DRY( 82,139)   DRY( 82,140)   DRY( 82,141)   
    DRY( 82,142)   DRY( 82,143)   DRY( 82,144)   DRY( 82,145)   DRY( 82,146)   
    DRY( 82,147)   DRY( 82,148)   DRY( 82,149)   DRY( 82,150)   DRY( 82,151)   
    DRY( 82,152)   DRY( 82,153)   DRY( 82,154)   DRY( 82,155)   DRY( 82,156)   
    DRY( 82,157)   DRY( 82,158)   DRY( 82,159)   DRY( 82,160)   DRY( 82,161)   
    DRY( 82,162)   DRY( 82,163)   DRY( 82,164)   DRY( 82,165)   DRY( 82,166)   
    DRY( 82,167)   DRY( 82,168)   DRY( 82,169)   DRY( 82,170)   DRY( 82,171)   
    DRY( 82,172)   DRY( 82,173)   DRY( 82,174)   DRY( 82,175)   DRY( 82,176)   
    DRY( 82,177)   DRY( 82,178)   DRY( 82,179)   DRY( 82,180)   DRY( 82,181)   
    DRY( 82,182)   DRY( 82,183)   DRY( 82,184)   DRY( 82,185)   DRY( 82,186)   
    DRY( 82,187)   DRY( 82,188)   DRY( 82,189)   DRY( 82,190)   DRY( 82,191)   
    DRY( 82,192)   DRY( 82,193)   DRY( 82,194)   DRY( 82,195)   DRY( 82,196)   
    DRY( 82,197)   DRY( 82,198)   DRY( 82,199)   DRY( 82,200)   DRY( 82,201)   
    DRY( 82,202)   DRY( 82,203)   DRY( 82,204)   DRY( 82,205)   DRY( 82,206)   
    DRY( 82,207)   DRY( 82,208)   DRY( 82,209)   DRY( 82,210)   DRY( 82,211)   
    DRY( 82,212)   DRY( 82,213)   DRY( 82,214)   DRY( 82,215)   DRY( 82,216)   
    DRY( 82,217)   DRY( 82,218)   DRY( 82,219)   DRY( 82,220)   DRY( 83,  1)   
    DRY( 83,  2)   DRY( 83,  3)   DRY( 83,  4)   DRY( 83,  5)   DRY( 83,  6)   
    DRY( 83,  7)   DRY( 83,  8)   DRY( 83,  9)   DRY( 83, 10)   DRY( 83, 11)   
    DRY( 83, 12)   DRY( 83, 13)   DRY( 83, 14)   DRY( 83, 15)   DRY( 83, 16)   
    DRY( 83, 17)   DRY( 83, 18)   DRY( 83, 19)   DRY( 83, 20)   DRY( 83, 21)   
    DRY( 83, 22)   DRY( 83, 23)   DRY( 83, 24)   DRY( 83, 25)   DRY( 83, 26)   
    DRY( 83, 27)   DRY( 83, 28)   DRY( 83, 29)   DRY( 83, 30)   DRY( 83, 31)   
    DRY( 83, 32)   DRY( 83, 33)   DRY( 83, 34)   DRY( 83, 35)   DRY( 83, 36)   
    DRY( 83, 37)   DRY( 83, 38)   DRY( 83, 39)   DRY( 83, 40)   DRY( 83, 41)   
    DRY( 83, 42)   DRY( 83, 43)   DRY( 83, 44)   DRY( 83, 45)   DRY( 83, 46)   
    DRY( 83, 47)   DRY( 83, 48)   DRY( 83, 49)   DRY( 83, 50)   DRY( 83, 51)   
    DRY( 83, 52)   DRY( 83, 53)   DRY( 83, 54)   DRY( 83, 55)   DRY( 83, 56)   
    DRY( 83, 57)   DRY( 83, 58)   DRY( 83, 59)   DRY( 83, 60)   DRY( 83, 61)   
    DRY( 83, 62)   DRY( 83, 63)   DRY( 83, 64)   DRY( 83, 65)   DRY( 83, 66)   
    DRY( 83, 67)   DRY( 83, 68)   DRY( 83, 69)   DRY( 83, 70)   DRY( 83, 71)   
    DRY( 83, 72)   DRY( 83, 73)   DRY( 83, 74)   DRY( 83, 75)   DRY( 83, 76)   
    DRY( 83, 77)   DRY( 83, 78)   DRY( 83, 79)   DRY( 83, 80)   DRY( 83, 81)   
    DRY( 83, 82)   DRY( 83, 83)   DRY( 83, 84)   DRY( 83, 85)   DRY( 83, 86)   
    DRY( 83, 87)   DRY( 83, 88)   DRY( 83, 89)   DRY( 83, 90)   DRY( 83, 91)   
    DRY( 83, 92)   DRY( 83, 93)   DRY( 83, 94)   DRY( 83, 95)   DRY( 83, 96)   
    DRY( 83, 97)   DRY( 83, 98)   DRY( 83, 99)   DRY( 83,100)   DRY( 83,101)   
    DRY( 83,102)   DRY( 83,103)   DRY( 83,104)   DRY( 83,105)   DRY( 83,106)   
    DRY( 83,107)   DRY( 83,108)   DRY( 83,109)   DRY( 83,110)   DRY( 83,111)   
    DRY( 83,112)   DRY( 83,113)   DRY( 83,114)   DRY( 83,115)   DRY( 83,116)   
    DRY( 83,117)   DRY( 83,118)   DRY( 83,119)   DRY( 83,120)   DRY( 83,121)   
    DRY( 83,122)   DRY( 83,123)   DRY( 83,124)   DRY( 83,125)   DRY( 83,126)   
    DRY( 83,127)   DRY( 83,128)   DRY( 83,129)   DRY( 83,130)   DRY( 83,131)   
    DRY( 83,132)   DRY( 83,133)   DRY( 83,134)   DRY( 83,135)   DRY( 83,136)   
    DRY( 83,137)   DRY( 83,138)   DRY( 83,139)   DRY( 83,140)   DRY( 83,141)   
    DRY( 83,142)   DRY( 83,143)   DRY( 83,144)   DRY( 83,145)   DRY( 83,146)   
    DRY( 83,147)   DRY( 83,148)   DRY( 83,149)   DRY( 83,150)   DRY( 83,151)   
    DRY( 83,152)   DRY( 83,153)   DRY( 83,154)   DRY( 83,155)   DRY( 83,156)   
    DRY( 83,157)   DRY( 83,158)   DRY( 83,159)   DRY( 83,160)   DRY( 83,161)   
    DRY( 83,162)   DRY( 83,163)   DRY( 83,164)   DRY( 83,165)   DRY( 83,166)   
    DRY( 83,167)   DRY( 83,168)   DRY( 83,169)   DRY( 83,170)   DRY( 83,171)   
    DRY( 83,172)   DRY( 83,173)   DRY( 83,174)   DRY( 83,175)   DRY( 83,176)   
    DRY( 83,177)   DRY( 83,178)   DRY( 83,179)   DRY( 83,180)   DRY( 83,181)   
    DRY( 83,182)   DRY( 83,183)   DRY( 83,184)   DRY( 83,185)   DRY( 83,186)   
    DRY( 83,187)   DRY( 83,188)   DRY( 83,189)   DRY( 83,190)   DRY( 83,191)   
    DRY( 83,192)   DRY( 83,193)   DRY( 83,194)   DRY( 83,195)   DRY( 83,196)   
    DRY( 83,197)   DRY( 83,198)   DRY( 83,199)   DRY( 83,200)   DRY( 83,201)   
    DRY( 83,202)   DRY( 83,203)   DRY( 83,204)   DRY( 83,205)   DRY( 83,206)   
    DRY( 83,207)   DRY( 83,208)   DRY( 83,209)   DRY( 83,210)   DRY( 83,211)   
    DRY( 83,212)   DRY( 83,213)   DRY( 83,214)   DRY( 83,215)   DRY( 83,216)   
    DRY( 83,217)   DRY( 83,218)   DRY( 83,219)   DRY( 83,220)   DRY( 84,  1)   
    DRY( 84,  2)   DRY( 84,  3)   DRY( 84,  4)   DRY( 84,  5)   DRY( 84,  6)   
    DRY( 84,  7)   DRY( 84,  8)   DRY( 84,  9)   DRY( 84, 10)   DRY( 84, 11)   
    DRY( 84, 12)   DRY( 84, 13)   DRY( 84, 14)   DRY( 84, 15)   DRY( 84, 16)   
    DRY( 84, 17)   DRY( 84, 18)   DRY( 84, 19)   DRY( 84, 20)   DRY( 84, 21)   
    DRY( 84, 22)   DRY( 84, 23)   DRY( 84, 24)   DRY( 84, 25)   DRY( 84, 26)   
    DRY( 84, 27)   DRY( 84, 28)   DRY( 84, 29)   DRY( 84, 30)   DRY( 84, 31)   
    DRY( 84, 32)   DRY( 84, 33)   DRY( 84, 34)   DRY( 84, 35)   DRY( 84, 36)   
    DRY( 84, 37)   DRY( 84, 38)   DRY( 84, 39)   DRY( 84, 40)   DRY( 84, 41)   
    DRY( 84, 42)   DRY( 84, 43)   DRY( 84, 44)   DRY( 84, 45)   DRY( 84, 46)   
    DRY( 84, 47)   DRY( 84, 48)   DRY( 84, 49)   DRY( 84, 50)   DRY( 84, 51)   
    DRY( 84, 52)   DRY( 84, 53)   DRY( 84, 54)   DRY( 84, 55)   DRY( 84, 56)   
    DRY( 84, 57)   DRY( 84, 58)   DRY( 84, 59)   DRY( 84, 60)   DRY( 84, 61)   
    DRY( 84, 62)   DRY( 84, 63)   DRY( 84, 64)   DRY( 84, 65)   DRY( 84, 66)   
    DRY( 84, 67)   DRY( 84, 68)   DRY( 84, 69)   DRY( 84, 70)   DRY( 84, 71)   
    DRY( 84, 72)   DRY( 84, 73)   DRY( 84, 74)   DRY( 84, 75)   DRY( 84, 76)   
    DRY( 84, 77)   DRY( 84, 78)   DRY( 84, 79)   DRY( 84, 80)   DRY( 84, 81)   
    DRY( 84, 82)   DRY( 84, 83)   DRY( 84, 84)   DRY( 84, 85)   DRY( 84, 86)   
    DRY( 84, 87)   DRY( 84, 88)   DRY( 84, 89)   DRY( 84, 90)   DRY( 84, 91)   
    DRY( 84, 92)   DRY( 84, 93)   DRY( 84, 94)   DRY( 84, 95)   DRY( 84, 96)   
    DRY( 84, 97)   DRY( 84, 98)   DRY( 84, 99)   DRY( 84,100)   DRY( 84,101)   
    DRY( 84,102)   DRY( 84,103)   DRY( 84,104)   DRY( 84,105)   DRY( 84,106)   
    DRY( 84,107)   DRY( 84,108)   DRY( 84,109)   DRY( 84,110)   DRY( 84,111)   
    DRY( 84,112)   DRY( 84,113)   DRY( 84,114)   DRY( 84,115)   DRY( 84,116)   
    DRY( 84,117)   DRY( 84,118)   DRY( 84,119)   DRY( 84,120)   DRY( 84,121)   
    DRY( 84,122)   DRY( 84,123)   DRY( 84,124)   DRY( 84,125)   DRY( 84,126)   
    DRY( 84,127)   DRY( 84,128)   DRY( 84,129)   DRY( 84,130)   DRY( 84,131)   
    DRY( 84,132)   DRY( 84,133)   DRY( 84,134)   DRY( 84,135)   DRY( 84,136)   
    DRY( 84,137)   DRY( 84,138)   DRY( 84,139)   DRY( 84,140)   DRY( 84,141)   
    DRY( 84,142)   DRY( 84,143)   DRY( 84,144)   DRY( 84,145)   DRY( 84,146)   
    DRY( 84,147)   DRY( 84,148)   DRY( 84,149)   DRY( 84,150)   DRY( 84,151)   
    DRY( 84,152)   DRY( 84,153)   DRY( 84,154)   DRY( 84,155)   DRY( 84,156)   
    DRY( 84,157)   DRY( 84,158)   DRY( 84,159)   DRY( 84,160)   DRY( 84,161)   
    DRY( 84,162)   DRY( 84,163)   DRY( 84,164)   DRY( 84,165)   DRY( 84,166)   
    DRY( 84,167)   DRY( 84,168)   DRY( 84,169)   DRY( 84,170)   DRY( 84,171)   
    DRY( 84,172)   DRY( 84,173)   DRY( 84,174)   DRY( 84,175)   DRY( 84,176)   
    DRY( 84,177)   DRY( 84,178)   DRY( 84,179)   DRY( 84,180)   DRY( 84,181)   
    DRY( 84,182)   DRY( 84,183)   DRY( 84,184)   DRY( 84,185)   DRY( 84,186)   
    DRY( 84,187)   DRY( 84,188)   DRY( 84,189)   DRY( 84,190)   DRY( 84,191)   
    DRY( 84,192)   DRY( 84,193)   DRY( 84,194)   DRY( 84,195)   DRY( 84,196)   
    DRY( 84,197)   DRY( 84,198)   DRY( 84,199)   DRY( 84,200)   DRY( 84,201)   
    DRY( 84,202)   DRY( 84,203)   DRY( 84,204)   DRY( 84,205)   DRY( 84,206)   
    DRY( 84,207)   DRY( 84,208)   DRY( 84,209)   DRY( 84,210)   DRY( 84,211)   
    DRY( 84,212)   DRY( 84,213)   DRY( 84,214)   DRY( 84,215)   DRY( 84,216)   
    DRY( 84,217)   DRY( 84,218)   DRY( 84,219)   DRY( 84,220)   

 CELL CONVERSIONS FOR ITER.=  4  LAYER= 28  STEP=  1  PERIOD=   1   (ROW,COL)
    DRY( 86,  1)   DRY( 86,  2)   DRY( 86,  3)   DRY( 86,  4)   DRY( 86,  5)   
    DRY( 86,  6)   DRY( 86,  7)   DRY( 86,  8)   DRY( 86,  9)   DRY( 86, 10)   
    DRY( 86, 11)   DRY( 86, 12)   DRY( 86, 13)   DRY( 86, 14)   DRY( 86, 15)   
    DRY( 86, 16)   DRY( 86, 17)   DRY( 86, 18)   DRY( 86, 19)   DRY( 86, 20)   
    DRY( 86, 21)   DRY( 86, 22)   DRY( 86, 23)   DRY( 86, 24)   DRY( 86, 25)   
    DRY( 86, 26)   DRY( 86, 27)   DRY( 86, 28)   DRY( 86, 29)   DRY( 86, 30)   
    DRY( 86, 31)   DRY( 86, 32)   DRY( 86, 33)   DRY( 86, 34)   DRY( 86, 35)   
    DRY( 86, 36)   DRY( 86, 37)   DRY( 86, 38)   DRY( 86, 39)   DRY( 86, 40)   
    DRY( 86, 41)   DRY( 86, 42)   DRY( 86, 43)   DRY( 86, 44)   DRY( 86, 45)   
    DRY( 86, 46)   DRY( 86, 47)   DRY( 86, 48)   DRY( 86, 49)   DRY( 86, 50)   
    DRY( 86, 51)   DRY( 86, 52)   DRY( 86, 53)   DRY( 86, 54)   DRY( 86, 55)   
    DRY( 86, 56)   DRY( 86, 57)   DRY( 86, 58)   DRY( 86, 59)   DRY( 86, 60)   
    DRY( 86, 61)   DRY( 86, 62)   DRY( 86, 63)   DRY( 86, 64)   DRY( 86, 65)   
    DRY( 86, 66)   DRY( 86, 67)   DRY( 86, 68)   DRY( 86, 69)   DRY( 86, 70)   
    DRY( 86, 71)   DRY( 86, 72)   DRY( 86, 73)   DRY( 86, 74)   DRY( 86, 75)   
    DRY( 86, 76)   DRY( 86, 77)   DRY( 86, 78)   DRY( 86, 79)   DRY( 86, 80)   
    DRY( 86, 81)   DRY( 86, 82)   DRY( 86, 83)   DRY( 86, 84)   DRY( 86, 85)   
    DRY( 86, 86)   DRY( 86, 87)   DRY( 86, 88)   DRY( 86, 89)   DRY( 87,  1)   
    DRY( 87,  2)   DRY( 87,  3)   DRY( 87,  4)   DRY( 87,  5)   DRY( 87,  6)   
    DRY( 87,  7)   DRY( 87,  8)   DRY( 87,  9)   DRY( 87, 10)   DRY( 87, 11)   
    DRY( 87, 12)   DRY( 87, 13)   DRY( 87, 14)   DRY( 87, 15)   DRY( 87, 16)   
    DRY( 87, 17)   DRY( 87, 18)   DRY( 87, 19)   DRY( 87, 20)   DRY( 87, 21)   
    DRY( 87, 22)   DRY( 87, 23)   DRY( 87, 24)   DRY( 87, 25)   DRY( 87, 26)   
    DRY( 87, 27)   DRY( 87, 28)   DRY( 87, 29)   DRY( 87, 30)   DRY( 87, 31)   
    DRY( 87, 32)   DRY( 87, 33)   DRY( 87, 34)   DRY( 87, 35)   DRY( 87, 36)   
    DRY( 87, 37)   DRY( 87, 38)   DRY( 87, 39)   DRY( 87, 40)   DRY( 87, 41)   
    DRY( 87, 42)   DRY( 87, 43)   DRY( 87, 44)   DRY( 87, 45)   DRY( 87, 46)   
    DRY( 87, 47)   DRY( 87, 48)   DRY( 87, 49)   DRY( 87, 50)   DRY( 87, 51)   
    DRY( 87, 52)   DRY( 87, 53)   DRY( 87, 54)   DRY( 87, 55)   DRY( 87, 56)   
    DRY( 87, 57)   DRY( 87, 58)   DRY( 87, 59)   DRY( 87, 60)   DRY( 87, 61)   
    DRY( 87, 62)   DRY( 87, 63)   DRY( 87, 64)   DRY( 87, 65)   DRY( 87, 66)   
    DRY( 87, 67)   DRY( 87, 68)   DRY( 87, 69)   DRY( 87, 70)   DRY( 87, 71)   
    DRY( 87, 72)   DRY( 87, 73)   DRY( 87, 74)   DRY( 87, 75)   DRY( 87, 76)   
    DRY( 87, 77)   DRY( 87, 78)   DRY( 87, 79)   DRY( 87, 80)   DRY( 87, 81)   
    DRY( 87, 82)   DRY( 87, 83)   DRY( 87, 84)   DRY( 87, 85)   DRY( 87, 86)   
    DRY( 87, 87)   DRY( 87, 88)   DRY( 87, 89)   DRY( 87, 90)   DRY( 87, 91)   
    DRY( 87, 92)   DRY( 87, 93)   DRY( 87, 94)   DRY( 87, 95)   DRY( 87, 96)   
    DRY( 87, 97)   DRY( 87, 98)   DRY( 87, 99)   DRY( 87,100)   DRY( 87,101)   
    DRY( 87,102)   DRY( 87,103)   DRY( 87,104)   DRY( 87,105)   DRY( 87,106)   
    DRY( 87,107)   DRY( 87,108)   DRY( 87,109)   DRY( 87,110)   DRY( 87,111)   
    DRY( 87,112)   DRY( 87,113)   DRY( 87,114)   DRY( 87,115)   DRY( 87,116)   
    DRY( 87,117)   DRY( 87,118)   DRY( 87,119)   DRY( 87,120)   DRY( 87,121)   
    DRY( 87,122)   DRY( 87,123)   DRY( 87,124)   DRY( 87,125)   DRY( 87,126)   
    DRY( 87,127)   DRY( 87,128)   DRY( 87,129)   DRY( 87,130)   DRY( 87,131)   
    DRY( 87,132)   DRY( 87,133)   DRY( 87,134)   DRY( 87,135)   DRY( 87,136)   
    DRY( 87,137)   DRY( 87,138)   DRY( 87,139)   DRY( 87,140)   DRY( 87,141)   
    DRY( 87,142)   DRY( 87,143)   DRY( 87,144)   DRY( 87,145)   DRY( 87,146)   
    DRY( 87,147)   DRY( 87,148)   DRY( 87,149)   DRY( 87,150)   DRY( 87,151)   
    DRY( 87,152)   DRY( 87,153)   DRY( 87,154)   DRY( 87,155)   DRY( 87,156)   
    DRY( 87,157)   DRY( 87,158)   DRY( 87,159)   DRY( 87,160)   DRY( 87,161)   
    DRY( 87,162)   DRY( 87,163)   DRY( 87,164)   DRY( 87,165)   DRY( 87,166)   
    DRY( 87,167)   DRY( 87,168)   DRY( 87,169)   DRY( 87,170)   DRY( 87,171)   
    DRY( 87,172)   DRY( 87,173)   DRY( 87,174)   DRY( 87,175)   DRY( 87,176)   
    DRY( 87,177)   DRY( 87,178)   DRY( 87,179)   DRY( 87,180)   DRY( 87,181)   
    DRY( 87,182)   DRY( 87,183)   DRY( 87,184)   DRY( 87,185)   DRY( 87,186)   
    DRY( 87,187)   DRY( 87,188)   DRY( 87,189)   DRY( 87,190)   DRY( 87,191)   
    DRY( 87,192)   DRY( 87,193)   DRY( 87,194)   DRY( 87,195)   DRY( 87,196)   
    DRY( 87,197)   DRY( 87,198)   DRY( 87,199)   DRY( 87,200)   DRY( 87,201)   
    DRY( 87,202)   DRY( 87,203)   DRY( 87,204)   DRY( 87,205)   DRY( 87,206)   
    DRY( 87,207)   DRY( 87,208)   DRY( 87,209)   DRY( 87,210)   DRY( 87,211)   
    DRY( 87,212)   DRY( 87,213)   DRY( 87,214)   DRY( 87,215)   DRY( 87,216)   
    DRY( 87,217)   DRY( 87,218)   DRY( 87,219)   DRY( 87,220)   DRY( 88,  1)   
    DRY( 88,  2)   DRY( 88,  3)   DRY( 88,  4)   DRY( 88,  5)   DRY( 88,  6)   
    DRY( 88,  7)   DRY( 88,  8)   DRY( 88,  9)   DRY( 88, 10)   DRY( 88, 11)   
    DRY( 88, 12)   DRY( 88, 13)   DRY( 88, 14)   DRY( 88, 15)   DRY( 88, 16)   
    DRY( 88, 17)   DRY( 88, 18)   DRY( 88, 19)   DRY( 88, 20)   DRY( 88, 21)   
    DRY( 88, 22)   DRY( 88, 23)   DRY( 88, 24)   DRY( 88, 25)   DRY( 88, 26)   
    DRY( 88, 27)   DRY( 88, 28)   DRY( 88, 29)   DRY( 88, 30)   DRY( 88, 31)   
    DRY( 88, 32)   DRY( 88, 33)   DRY( 88, 34)   DRY( 88, 35)   DRY( 88, 36)   
    DRY( 88, 37)   DRY( 88, 38)   DRY( 88, 39)   DRY( 88, 40)   DRY( 88, 41)   
    DRY( 88, 42)   DRY( 88, 43)   DRY( 88, 44)   DRY( 88, 45)   DRY( 88, 46)   
    DRY( 88, 47)   DRY( 88, 48)   DRY( 88, 49)   DRY( 88, 50)   DRY( 88, 51)   
    DRY( 88, 52)   DRY( 88, 53)   DRY( 88, 54)   DRY( 88, 55)   DRY( 88, 56)   
    DRY( 88, 57)   DRY( 88, 58)   DRY( 88, 59)   DRY( 88, 60)   DRY( 88, 61)   
    DRY( 88, 62)   DRY( 88, 63)   DRY( 88, 64)   DRY( 88, 65)   DRY( 88, 66)   
    DRY( 88, 67)   DRY( 88, 68)   DRY( 88, 69)   DRY( 88, 70)   DRY( 88, 71)   
    DRY( 88, 72)   DRY( 88, 73)   DRY( 88, 74)   DRY( 88, 75)   DRY( 88, 76)   
    DRY( 88, 77)   DRY( 88, 78)   DRY( 88, 79)   DRY( 88, 80)   DRY( 88, 81)   
    DRY( 88, 82)   DRY( 88, 83)   DRY( 88, 84)   DRY( 88, 85)   DRY( 88, 86)   
    DRY( 88, 87)   DRY( 88, 88)   DRY( 88, 89)   DRY( 88, 90)   DRY( 88, 91)   
    DRY( 88, 92)   DRY( 88, 93)   DRY( 88, 94)   DRY( 88, 95)   DRY( 88, 96)   
    DRY( 88, 97)   DRY( 88, 98)   DRY( 88, 99)   DRY( 88,100)   DRY( 88,101)   
    DRY( 88,102)   DRY( 88,103)   DRY( 88,104)   DRY( 88,105)   DRY( 88,106)   
    DRY( 88,107)   DRY( 88,108)   DRY( 88,109)   DRY( 88,110)   DRY( 88,111)   
    DRY( 88,112)   DRY( 88,113)   DRY( 88,114)   DRY( 88,115)   DRY( 88,116)   
    DRY( 88,117)   DRY( 88,118)   DRY( 88,119)   DRY( 88,120)   DRY( 88,121)   
    DRY( 88,122)   DRY( 88,123)   DRY( 88,124)   DRY( 88,125)   DRY( 88,126)   
    DRY( 88,127)   DRY( 88,128)   DRY( 88,129)   DRY( 88,130)   DRY( 88,131)   
    DRY( 88,132)   DRY( 88,133)   DRY( 88,134)   DRY( 88,135)   DRY( 88,136)   
    DRY( 88,137)   DRY( 88,138)   DRY( 88,139)   DRY( 88,140)   DRY( 88,141)   
    DRY( 88,142)   DRY( 88,143)   DRY( 88,144)   DRY( 88,145)   DRY( 88,146)   
    DRY( 88,147)   DRY( 88,148)   DRY( 88,149)   DRY( 88,150)   DRY( 88,151)   
    DRY( 88,152)   DRY( 88,153)   DRY( 88,154)   DRY( 88,155)   DRY( 88,156)   
    DRY( 88,157)   DRY( 88,158)   DRY( 88,159)   DRY( 88,160)   DRY( 88,161)   
    DRY( 88,162)   DRY( 88,163)   DRY( 88,164)   DRY( 88,165)   DRY( 88,166)   
    DRY( 88,167)   DRY( 88,168)   DRY( 88,169)   DRY( 88,170)   DRY( 88,171)   
    DRY( 88,172)   DRY( 88,173)   DRY( 88,174)   DRY( 88,175)   DRY( 88,176)   
    DRY( 88,177)   DRY( 88,178)   DRY( 88,179)   DRY( 88,180)   DRY( 88,181)   
    DRY( 88,182)   DRY( 88,183)   DRY( 88,184)   DRY( 88,185)   DRY( 88,186)   
    DRY( 88,187)   DRY( 88,188)   DRY( 88,189)   DRY( 88,190)   DRY( 88,191)   
    DRY( 88,192)   DRY( 88,193)   DRY( 88,194)   DRY( 88,195)   DRY( 88,196)   
    DRY( 88,197)   DRY( 88,198)   DRY( 88,199)   DRY( 88,200)   DRY( 88,201)   
    DRY( 88,202)   DRY( 88,203)   DRY( 88,204)   DRY( 88,205)   DRY( 88,206)   
    DRY( 88,207)   DRY( 88,208)   DRY( 88,209)   DRY( 88,210)   DRY( 88,211)   
    DRY( 88,212)   DRY( 88,213)   DRY( 88,214)   DRY( 88,215)   DRY( 88,216)   
    DRY( 88,217)   DRY( 88,218)   DRY( 88,219)   DRY( 88,220)   DRY( 89,  1)   
    DRY( 89,  2)   DRY( 89,  3)   DRY( 89,  4)   DRY( 89,  5)   DRY( 89,  6)   
    DRY( 89,  7)   DRY( 89,  8)   DRY( 89,  9)   DRY( 89, 10)   DRY( 89, 11)   
    DRY( 89, 12)   DRY( 89, 13)   DRY( 89, 14)   DRY( 89, 15)   DRY( 89, 16)   
    DRY( 89, 17)   DRY( 89, 18)   DRY( 89, 19)   DRY( 89, 20)   DRY( 89, 21)   
    DRY( 89, 22)   DRY( 89, 23)   DRY( 89, 24)   DRY( 89, 25)   DRY( 89, 26)   
    DRY( 89, 27)   DRY( 89, 28)   DRY( 89, 29)   DRY( 89, 30)   DRY( 89, 31)   
    DRY( 89, 32)   DRY( 89, 33)   DRY( 89, 34)   DRY( 89, 35)   DRY( 89, 36)   
    DRY( 89, 37)   DRY( 89, 38)   DRY( 89, 39)   DRY( 89, 40)   DRY( 89, 41)   
    DRY( 89, 42)   DRY( 89, 43)   DRY( 89, 44)   DRY( 89, 45)   DRY( 89, 46)   
    DRY( 89, 47)   DRY( 89, 48)   DRY( 89, 49)   DRY( 89, 50)   DRY( 89, 51)   
    DRY( 89, 52)   DRY( 89, 53)   DRY( 89, 54)   DRY( 89, 55)   DRY( 89, 56)   
    DRY( 89, 57)   DRY( 89, 58)   DRY( 89, 59)   DRY( 89, 60)   DRY( 89, 61)   
    DRY( 89, 62)   DRY( 89, 63)   DRY( 89, 64)   DRY( 89, 65)   DRY( 89, 66)   
    DRY( 89, 67)   DRY( 89, 68)   DRY( 89, 69)   DRY( 89, 70)   DRY( 89, 71)   
    DRY( 89, 72)   DRY( 89, 73)   DRY( 89, 74)   DRY( 89, 75)   DRY( 89, 76)   
    DRY( 89, 77)   DRY( 89, 78)   DRY( 89, 79)   DRY( 89, 80)   DRY( 89, 81)   
    DRY( 89, 82)   DRY( 89, 83)   DRY( 89, 84)   DRY( 89, 85)   DRY( 89, 86)   
    DRY( 89, 87)   DRY( 89, 88)   DRY( 89, 89)   DRY( 89, 90)   DRY( 89, 91)   
    DRY( 89, 92)   DRY( 89, 93)   DRY( 89, 94)   DRY( 89, 95)   DRY( 89, 96)   
    DRY( 89, 97)   DRY( 89, 98)   DRY( 89, 99)   DRY( 89,100)   DRY( 89,101)   
    DRY( 89,102)   DRY( 89,103)   DRY( 89,104)   DRY( 89,105)   DRY( 89,106)   
    DRY( 89,107)   DRY( 89,108)   DRY( 89,109)   DRY( 89,110)   DRY( 89,111)   
    DRY( 89,112)   DRY( 89,113)   DRY( 89,114)   DRY( 89,115)   DRY( 89,116)   
    DRY( 89,117)   DRY( 89,118)   DRY( 89,119)   DRY( 89,120)   DRY( 89,121)   
    DRY( 89,122)   DRY( 89,123)   DRY( 89,124)   DRY( 89,125)   DRY( 89,126)   
    DRY( 89,127)   DRY( 89,128)   DRY( 89,129)   DRY( 89,130)   DRY( 89,131)   
    DRY( 89,132)   DRY( 89,133)   DRY( 89,134)   DRY( 89,135)   DRY( 89,136)   
    DRY( 89,137)   DRY( 89,138)   DRY( 89,139)   DRY( 89,140)   DRY( 89,141)   
    DRY( 89,142)   DRY( 89,143)   DRY( 89,144)   DRY( 89,145)   DRY( 89,146)   
    DRY( 89,147)   DRY( 89,148)   DRY( 89,149)   DRY( 89,150)   DRY( 89,151)   
    DRY( 89,152)   DRY( 89,153)   DRY( 89,154)   DRY( 89,155)   DRY( 89,156)   
    DRY( 89,157)   DRY( 89,158)   DRY( 89,159)   DRY( 89,160)   DRY( 89,161)   
    DRY( 89,162)   DRY( 89,163)   DRY( 89,164)   DRY( 89,165)   DRY( 89,166)   
    DRY( 89,167)   DRY( 89,168)   DRY( 89,169)   DRY( 89,170)   DRY( 89,171)   
    DRY( 89,172)   DRY( 89,173)   DRY( 89,174)   DRY( 89,175)   DRY( 89,176)   
    DRY( 89,177)   DRY( 89,178)   DRY( 89,179)   DRY( 89,180)   DRY( 89,181)   
    DRY( 89,182)   DRY( 89,183)   DRY( 89,184)   DRY( 89,185)   DRY( 89,186)   
    DRY( 89,187)   DRY( 89,188)   DRY( 89,189)   DRY( 89,190)   DRY( 89,191)   
    DRY( 89,192)   DRY( 89,193)   DRY( 89,194)   DRY( 89,195)   DRY( 89,196)   
    DRY( 89,197)   DRY( 89,198)   DRY( 89,199)   DRY( 89,200)   DRY( 89,201)   
    DRY( 89,202)   DRY( 89,203)   DRY( 89,204)   DRY( 89,205)   DRY( 89,206)   
    DRY( 89,207)   DRY( 89,208)   DRY( 89,209)   DRY( 89,210)   DRY( 89,211)   
    DRY( 89,212)   DRY( 89,213)   DRY( 89,214)   DRY( 89,215)   DRY( 89,216)   
    DRY( 89,217)   DRY( 89,218)   DRY( 89,219)   DRY( 89,220)   DRY( 90,  1)   
    DRY( 90,  2)   DRY( 90,  3)   DRY( 90,  4)   DRY( 90,  5)   DRY( 90,  6)   
    DRY( 90,  7)   DRY( 90,  8)   DRY( 90,  9)   DRY( 90, 10)   DRY( 90, 11)   
    DRY( 90, 12)   DRY( 90, 13)   DRY( 90, 14)   DRY( 90, 15)   DRY( 90, 16)   
    DRY( 90, 17)   DRY( 90, 18)   DRY( 90, 19)   DRY( 90, 20)   DRY( 90, 21)   
    DRY( 90, 22)   DRY( 90, 23)   DRY( 90, 24)   DRY( 90, 25)   DRY( 90, 26)   
    DRY( 90, 27)   DRY( 90, 28)   DRY( 90, 29)   DRY( 90, 30)   DRY( 90, 31)   
    DRY( 90, 32)   DRY( 90, 33)   DRY( 90, 34)   DRY( 90, 35)   DRY( 90, 36)   
    DRY( 90, 37)   DRY( 90, 38)   DRY( 90, 39)   DRY( 90, 40)   DRY( 90, 41)   
    DRY( 90, 42)   DRY( 90, 43)   DRY( 90, 44)   DRY( 90, 45)   DRY( 90, 46)   
    DRY( 90, 47)   DRY( 90, 48)   DRY( 90, 49)   DRY( 90, 50)   DRY( 90, 51)   
    DRY( 90, 52)   DRY( 90, 53)   DRY( 90, 54)   DRY( 90, 55)   DRY( 90, 56)   
    DRY( 90, 57)   DRY( 90, 58)   DRY( 90, 59)   DRY( 90, 60)   DRY( 90, 61)   
    DRY( 90, 62)   DRY( 90, 63)   DRY( 90, 64)   DRY( 90, 65)   DRY( 90, 66)   
    DRY( 90, 67)   DRY( 90, 68)   DRY( 90, 69)   DRY( 90, 70)   DRY( 90, 71)   
    DRY( 90, 72)   DRY( 90, 73)   DRY( 90, 74)   DRY( 90, 75)   DRY( 90, 76)   
    DRY( 90, 77)   DRY( 90, 78)   DRY( 90, 79)   DRY( 90, 80)   DRY( 90, 81)   
    DRY( 90, 82)   DRY( 90, 83)   DRY( 90, 84)   DRY( 90, 85)   DRY( 90, 86)   
    DRY( 90, 87)   DRY( 90, 88)   DRY( 90, 89)   DRY( 90, 90)   DRY( 90, 91)   
    DRY( 90, 92)   DRY( 90, 93)   DRY( 90, 94)   DRY( 90, 95)   DRY( 90, 96)   
    DRY( 90, 97)   DRY( 90, 98)   DRY( 90, 99)   DRY( 90,100)   DRY( 90,101)   
    DRY( 90,102)   DRY( 90,103)   DRY( 90,104)   DRY( 90,105)   DRY( 90,106)   
    DRY( 90,107)   DRY( 90,108)   DRY( 90,109)   DRY( 90,110)   DRY( 90,111)   
    DRY( 90,112)   DRY( 90,113)   DRY( 90,114)   DRY( 90,115)   DRY( 90,116)   
    DRY( 90,117)   DRY( 90,118)   DRY( 90,119)   DRY( 90,120)   DRY( 90,121)   
    DRY( 90,122)   DRY( 90,123)   DRY( 90,124)   DRY( 90,125)   DRY( 90,126)   
    DRY( 90,127)   DRY( 90,128)   DRY( 90,129)   DRY( 90,130)   DRY( 90,131)   
    DRY( 90,132)   DRY( 90,133)   DRY( 90,134)   DRY( 90,135)   DRY( 90,136)   
    DRY( 90,137)   DRY( 90,138)   DRY( 90,139)   DRY( 90,140)   DRY( 90,141)   
    DRY( 90,142)   DRY( 90,143)   DRY( 90,144)   DRY( 90,145)   DRY( 90,146)   
    DRY( 90,147)   DRY( 90,148)   DRY( 90,149)   DRY( 90,150)   DRY( 90,151)   
    DRY( 90,152)   DRY( 90,153)   DRY( 90,154)   DRY( 90,155)   DRY( 90,156)   
    DRY( 90,157)   DRY( 90,158)   DRY( 90,159)   DRY( 90,160)   DRY( 90,161)   
    DRY( 90,162)   DRY( 90,163)   DRY( 90,164)   DRY( 90,165)   DRY( 90,166)   
    DRY( 90,167)   DRY( 90,168)   DRY( 90,169)   DRY( 90,170)   DRY( 90,171)   
    DRY( 90,172)   DRY( 90,173)   DRY( 90,174)   DRY( 90,175)   DRY( 90,176)   
    DRY( 90,177)   DRY( 90,178)   DRY( 90,179)   DRY( 90,180)   DRY( 90,181)   
    DRY( 90,182)   DRY( 90,183)   DRY( 90,184)   DRY( 90,185)   DRY( 90,186)   
    DRY( 90,187)   DRY( 90,188)   DRY( 90,189)   DRY( 90,190)   DRY( 90,191)   
    DRY( 90,192)   DRY( 90,193)   DRY( 90,194)   DRY( 90,195)   DRY( 90,196)   
    DRY( 90,197)   DRY( 90,198)   DRY( 90,199)   DRY( 90,200)   DRY( 90,201)   
    DRY( 90,202)   DRY( 90,203)   DRY( 90,204)   DRY( 90,205)   DRY( 90,206)   
    DRY( 90,207)   DRY( 90,208)   DRY( 90,209)   DRY( 90,210)   DRY( 90,211)   
    DRY( 90,212)   DRY( 90,213)   DRY( 90,214)   DRY( 90,215)   DRY( 90,216)   
    DRY( 90,217)   DRY( 90,218)   DRY( 90,219)   DRY( 90,220)   

 CELL CONVERSIONS FOR ITER.=  5  LAYER= 20  STEP=  1  PERIOD=   1   (ROW,COL)
    DRY( 44,213)   DRY( 44,214)   DRY( 44,215)   DRY( 44,216)   

 CELL CONVERSIONS FOR ITER.=  5  LAYER= 21  STEP=  1  PERIOD=   1   (ROW,COL)
    DRY( 47,  1)   DRY( 47,  2)   DRY( 47,  3)   DRY( 47,  4)   DRY( 47,  5)   
    DRY( 47,  6)   DRY( 47,  7)   DRY( 47,  8)   DRY( 47,  9)   DRY( 47, 10)   
    DRY( 47, 11)   DRY( 47, 12)   DRY( 47, 13)   DRY( 47, 14)   DRY( 47, 15)   
    DRY( 47, 16)   DRY( 47, 17)   DRY( 47, 18)   DRY( 47, 19)   DRY( 47, 20)   
    DRY( 47, 21)   DRY( 47, 22)   DRY( 47, 23)   DRY( 47, 24)   DRY( 47, 25)   
    DRY( 47, 26)   DRY( 47, 27)   DRY( 47, 28)   DRY( 47, 29)   DRY( 47, 30)   
    DRY( 47, 31)   DRY( 47, 32)   DRY( 47, 33)   DRY( 47, 34)   DRY( 47, 35)   
    DRY( 47, 36)   DRY( 47, 37)   DRY( 47, 38)   DRY( 47, 39)   DRY( 47, 40)   
    DRY( 47, 41)   DRY( 47, 42)   DRY( 47, 43)   DRY( 47, 44)   DRY( 47, 45)   
    DRY( 47, 46)   DRY( 47, 47)   DRY( 47, 48)   DRY( 47, 49)   DRY( 47, 50)   
    DRY( 47, 51)   DRY( 47, 52)   DRY( 47, 53)   DRY( 47, 54)   DRY( 47, 55)   
    DRY( 47, 56)   DRY( 47, 57)   DRY( 47, 58)   DRY( 47, 59)   DRY( 47, 60)   
    DRY( 47, 61)   DRY( 47, 62)   DRY( 47, 63)   DRY( 47, 64)   DRY( 47, 65)   
    DRY( 47, 66)   DRY( 47, 67)   DRY( 47, 68)   DRY( 47, 69)   DRY( 47, 70)   
    DRY( 47, 71)   DRY( 47, 72)   DRY( 47, 73)   DRY( 47, 74)   DRY( 47, 75)   
    DRY( 47, 76)   DRY( 47, 77)   DRY( 47, 78)   DRY( 47, 79)   DRY( 47, 80)   
    DRY( 47, 81)   DRY( 47, 82)   DRY( 47, 83)   DRY( 47, 84)   DRY( 47, 85)   
    DRY( 47, 86)   DRY( 47, 87)   DRY( 47, 88)   DRY( 47, 89)   DRY( 47, 90)   
    DRY( 47, 91)   DRY( 47, 92)   DRY( 47, 93)   DRY( 47, 94)   DRY( 47, 95)   
    DRY( 47, 96)   DRY( 47, 97)   DRY( 47, 98)   DRY( 47, 99)   DRY( 47,100)   
    DRY( 47,101)   DRY( 47,102)   DRY( 47,103)   DRY( 47,104)   DRY( 47,105)   
    DRY( 47,106)   DRY( 47,107)   DRY( 47,108)   DRY( 47,109)   DRY( 47,110)   
    DRY( 47,111)   DRY( 47,112)   DRY( 47,113)   DRY( 47,114)   DRY( 47,115)   
    DRY( 47,116)   DRY( 47,117)   DRY( 47,118)   DRY( 47,119)   DRY( 47,120)   
    DRY( 47,121)   DRY( 47,122)   DRY( 47,123)   DRY( 47,124)   DRY( 47,125)   
    DRY( 47,126)   DRY( 47,127)   DRY( 47,128)   DRY( 47,129)   DRY( 47,130)   
    DRY( 47,131)   DRY( 47,132)   DRY( 47,133)   DRY( 47,134)   DRY( 47,135)   
    DRY( 47,136)   DRY( 47,137)   DRY( 47,138)   DRY( 47,139)   DRY( 47,140)   
    DRY( 47,141)   DRY( 47,142)   DRY( 47,143)   DRY( 47,144)   DRY( 47,145)   
    DRY( 47,146)   DRY( 47,147)   DRY( 47,148)   DRY( 47,149)   DRY( 47,150)   
    DRY( 47,151)   DRY( 47,152)   DRY( 47,153)   DRY( 47,154)   DRY( 47,155)   
    DRY( 47,156)   DRY( 47,157)   DRY( 47,158)   DRY( 47,159)   DRY( 47,160)   
    DRY( 47,161)   DRY( 47,162)   DRY( 47,163)   DRY( 47,164)   DRY( 47,165)   
    DRY( 47,166)   DRY( 47,167)   DRY( 47,168)   DRY( 47,169)   DRY( 47,170)   
    DRY( 47,171)   DRY( 47,172)   DRY( 47,173)   DRY( 47,174)   DRY( 47,175)   
    DRY( 47,176)   DRY( 47,177)   DRY( 47,178)   DRY( 47,179)   DRY( 47,180)   
    DRY( 47,181)   DRY( 47,182)   DRY( 47,183)   DRY( 47,184)   DRY( 47,185)   
    DRY( 47,186)   DRY( 47,187)   

 CELL CONVERSIONS FOR ITER.=  5  LAYER= 22  STEP=  1  PERIOD=   1   (ROW,COL)
    DRY( 51,  1)   DRY( 51,  2)   DRY( 51,  3)   DRY( 51,  4)   DRY( 51,  5)   
    DRY( 51,  6)   DRY( 51,  7)   DRY( 51,  8)   DRY( 51,  9)   DRY( 51, 10)   
    DRY( 51, 11)   DRY( 51, 12)   DRY( 51, 13)   DRY( 51, 14)   DRY( 51, 15)   
    DRY( 51, 16)   DRY( 51, 17)   DRY( 51, 18)   DRY( 51, 19)   DRY( 51, 20)   
    DRY( 51, 21)   DRY( 51, 22)   DRY( 51, 23)   DRY( 51, 24)   DRY( 51, 25)   
    DRY( 51, 26)   DRY( 51, 27)   DRY( 51, 28)   DRY( 51, 29)   DRY( 51, 30)   
    DRY( 51, 31)   DRY( 51, 32)   DRY( 51, 33)   DRY( 51, 34)   DRY( 51, 35)   
    DRY( 51, 36)   DRY( 51, 37)   DRY( 51, 38)   DRY( 51, 39)   DRY( 51, 40)   
    DRY( 51, 41)   DRY( 51, 42)   DRY( 51, 43)   DRY( 51, 44)   DRY( 51, 45)   
    DRY( 51, 46)   DRY( 51, 47)   DRY( 51, 48)   DRY( 51, 49)   DRY( 51, 50)   
    DRY( 51, 51)   DRY( 51, 52)   DRY( 51, 53)   DRY( 51, 54)   DRY( 51, 55)   
    DRY( 51, 56)   DRY( 51, 57)   DRY( 51, 58)   DRY( 51, 59)   DRY( 51, 60)   
    DRY( 51, 61)   DRY( 51, 62)   DRY( 51, 63)   DRY( 51, 64)   DRY( 51, 65)   
    DRY( 51, 66)   DRY( 51, 67)   DRY( 51, 68)   DRY( 51, 69)   DRY( 51, 70)   
    DRY( 51, 71)   DRY( 51, 72)   DRY( 51, 73)   DRY( 51, 74)   DRY( 51, 75)   
    DRY( 51, 76)   DRY( 51, 77)   DRY( 51, 78)   DRY( 51, 79)   DRY( 51, 80)   
    DRY( 51, 81)   DRY( 51, 82)   DRY( 51, 83)   DRY( 51, 84)   DRY( 51, 85)   
    DRY( 51, 86)   DRY( 51, 87)   DRY( 51, 88)   DRY( 51, 89)   DRY( 51, 90)   
    DRY( 51, 91)   DRY( 51, 92)   DRY( 51, 93)   DRY( 51, 94)   DRY( 51, 95)   
    DRY( 51, 96)   DRY( 51, 97)   DRY( 51, 98)   DRY( 51, 99)   DRY( 51,100)   
    DRY( 51,101)   DRY( 51,102)   DRY( 51,103)   DRY( 51,104)   DRY( 51,105)   
    DRY( 51,106)   DRY( 51,107)   DRY( 51,108)   DRY( 51,109)   DRY( 51,110)   
    DRY( 51,111)   DRY( 51,112)   DRY( 51,113)   DRY( 51,114)   DRY( 51,115)   
    DRY( 51,116)   DRY( 51,117)   DRY( 51,118)   DRY( 51,119)   DRY( 51,120)   
    DRY( 51,121)   DRY( 51,122)   DRY( 51,123)   DRY( 51,124)   DRY( 51,125)   
    DRY( 51,126)   DRY( 51,127)   DRY( 51,128)   DRY( 51,129)   DRY( 51,130)   
    DRY( 51,131)   DRY( 51,132)   DRY( 51,133)   DRY( 51,134)   DRY( 51,135)   
    DRY( 51,136)   DRY( 51,137)   DRY( 51,138)   DRY( 51,139)   DRY( 51,140)   
    DRY( 51,141)   DRY( 51,142)   DRY( 51,143)   DRY( 51,144)   DRY( 51,145)   
    DRY( 51,146)   DRY( 51,147)   DRY( 51,148)   DRY( 51,149)   DRY( 51,150)   
    DRY( 51,151)   DRY( 51,152)   DRY( 51,153)   DRY( 51,154)   DRY( 51,155)   
    DRY( 51,156)   DRY( 51,157)   DRY( 51,158)   DRY( 51,159)   DRY( 51,160)   
    DRY( 51,161)   DRY( 51,162)   DRY( 51,163)   DRY( 51,164)   DRY( 51,165)   
    DRY( 51,166)   DRY( 51,167)   DRY( 51,168)   DRY( 51,169)   DRY( 51,170)   
    DRY( 51,171)   DRY( 51,172)   DRY( 51,173)   DRY( 51,174)   DRY( 51,175)   
    DRY( 51,176)   DRY( 51,177)   DRY( 51,178)   DRY( 51,179)   DRY( 51,180)   
    DRY( 51,181)   DRY( 51,182)   DRY( 51,183)   DRY( 51,184)   DRY( 51,185)   
    DRY( 51,186)   DRY( 51,187)   DRY( 51,188)   DRY( 51,189)   DRY( 51,190)   
    DRY( 51,191)   DRY( 51,192)   DRY( 51,193)   DRY( 51,194)   DRY( 51,195)   
    DRY( 51,196)   DRY( 51,197)   DRY( 51,198)   DRY( 51,199)   DRY( 51,200)   
    DRY( 51,201)   DRY( 51,202)   DRY( 51,203)   DRY( 51,204)   DRY( 51,205)   
    DRY( 51,206)   DRY( 51,207)   DRY( 51,208)   DRY( 51,209)   DRY( 51,210)   
    DRY( 51,211)   DRY( 51,212)   DRY( 51,213)   DRY( 51,214)   DRY( 51,215)   
    DRY( 51,216)   DRY( 51,217)   DRY( 51,218)   DRY( 51,219)   DRY( 51,220)   
    DRY( 52,190)   DRY( 52,191)   DRY( 52,192)   DRY( 52,193)   DRY( 52,194)   
    DRY( 52,195)   DRY( 52,196)   DRY( 52,197)   DRY( 52,198)   DRY( 52,199)   
    DRY( 52,200)   DRY( 52,201)   DRY( 52,202)   DRY( 52,203)   DRY( 52,204)   
    DRY( 52,205)   DRY( 52,206)   DRY( 52,207)   DRY( 52,208)   DRY( 52,209)   
    DRY( 52,210)   DRY( 52,216)   DRY( 52,217)   DRY( 52,218)   

 CELL CONVERSIONS FOR ITER.=  5  LAYER= 23  STEP=  1  PERIOD=   1   (ROW,COL)
    DRY( 55,  1)   DRY( 55,  2)   DRY( 55,  3)   DRY( 55,  4)   DRY( 55,  5)   
    DRY( 55,  6)   DRY( 55,  7)   DRY( 55,  8)   DRY( 55,  9)   DRY( 55, 10)   
    DRY( 55, 11)   DRY( 55, 12)   DRY( 55, 13)   DRY( 55, 14)   DRY( 55, 15)   
    DRY( 55, 16)   DRY( 55, 17)   DRY( 55, 18)   DRY( 55, 19)   DRY( 55, 20)   
    DRY( 55, 21)   DRY( 55, 22)   DRY( 55, 23)   DRY( 55, 24)   DRY( 55, 25)   
    DRY( 55, 26)   DRY( 55, 27)   DRY( 55, 28)   DRY( 55, 29)   DRY( 55, 30)   
    DRY( 55, 31)   DRY( 55, 32)   DRY( 55, 33)   DRY( 55, 34)   DRY( 55, 35)   
    DRY( 55, 36)   DRY( 55, 37)   DRY( 55, 38)   DRY( 55, 39)   DRY( 55, 40)   
    DRY( 55, 41)   DRY( 55, 42)   DRY( 55, 43)   DRY( 55, 44)   DRY( 55, 45)   
    DRY( 55, 46)   DRY( 55, 47)   DRY( 55, 48)   DRY( 55, 49)   DRY( 55, 50)   
    DRY( 55, 51)   DRY( 55, 52)   DRY( 55, 53)   DRY( 55, 54)   DRY( 55, 55)   
    DRY( 55, 56)   DRY( 55, 57)   DRY( 55, 58)   DRY( 55, 59)   DRY( 55, 60)   
    DRY( 55, 61)   DRY( 55, 62)   DRY( 55, 63)   DRY( 55, 64)   DRY( 55, 65)   
    DRY( 55, 66)   DRY( 55, 67)   DRY( 55, 68)   DRY( 55, 69)   DRY( 55, 70)   
    DRY( 55, 71)   DRY( 55, 72)   DRY( 55, 73)   DRY( 55, 74)   DRY( 55, 75)   
    DRY( 55, 76)   DRY( 55, 77)   DRY( 55, 78)   DRY( 55, 79)   DRY( 55, 80)   
    DRY( 55, 81)   DRY( 55, 82)   DRY( 55, 83)   DRY( 55, 84)   DRY( 55, 85)   
    DRY( 55, 86)   DRY( 55, 87)   DRY( 55, 88)   DRY( 55, 89)   DRY( 55, 90)   
    DRY( 55, 91)   DRY( 55, 92)   DRY( 55, 93)   DRY( 55, 94)   DRY( 55, 95)   
    DRY( 55, 96)   DRY( 55, 97)   DRY( 55, 98)   DRY( 55, 99)   DRY( 55,100)   
    DRY( 55,101)   DRY( 55,102)   DRY( 55,103)   DRY( 55,104)   DRY( 55,105)   
    DRY( 55,106)   DRY( 55,107)   DRY( 55,108)   DRY( 55,109)   DRY( 55,110)   
    DRY( 55,111)   DRY( 55,112)   DRY( 55,113)   DRY( 55,114)   DRY( 55,115)   
    DRY( 55,116)   DRY( 55,117)   DRY( 55,118)   DRY( 55,119)   DRY( 55,120)   
    DRY( 55,121)   DRY( 55,122)   DRY( 55,123)   DRY( 55,124)   DRY( 55,125)   
    DRY( 55,126)   DRY( 55,127)   DRY( 55,128)   DRY( 55,129)   DRY( 55,130)   
    DRY( 55,131)   DRY( 55,132)   DRY( 55,133)   DRY( 55,134)   DRY( 55,135)   
    DRY( 55,136)   DRY( 55,137)   DRY( 55,138)   DRY( 55,139)   DRY( 55,140)   
    DRY( 55,141)   DRY( 55,142)   DRY( 55,143)   DRY( 55,144)   DRY( 55,145)   
    DRY( 55,146)   DRY( 55,147)   DRY( 55,148)   DRY( 55,149)   DRY( 55,150)   
    DRY( 55,151)   DRY( 55,152)   DRY( 55,153)   DRY( 55,154)   DRY( 55,155)   
    DRY( 55,156)   DRY( 55,157)   DRY( 55,158)   DRY( 55,159)   DRY( 55,160)   
    DRY( 55,161)   DRY( 55,162)   DRY( 55,163)   DRY( 55,164)   DRY( 55,165)   
    DRY( 55,166)   DRY( 55,167)   DRY( 55,168)   DRY( 55,169)   DRY( 55,170)   
    DRY( 55,171)   DRY( 55,172)   DRY( 55,173)   DRY( 55,174)   DRY( 55,175)   
    DRY( 55,176)   DRY( 55,177)   DRY( 55,178)   DRY( 55,179)   DRY( 55,180)   
    DRY( 55,181)   DRY( 55,182)   DRY( 55,183)   DRY( 55,184)   DRY( 55,185)   
    DRY( 55,186)   DRY( 55,187)   DRY( 55,188)   DRY( 55,189)   DRY( 55,190)   
    DRY( 55,191)   DRY( 55,192)   DRY( 55,193)   DRY( 55,194)   DRY( 55,195)   
    DRY( 55,196)   DRY( 55,197)   DRY( 55,198)   DRY( 55,199)   DRY( 55,200)   
    DRY( 55,201)   DRY( 55,202)   DRY( 55,203)   DRY( 55,204)   DRY( 55,205)   
    DRY( 55,206)   DRY( 55,207)   DRY( 55,208)   DRY( 55,209)   DRY( 55,210)   
    DRY( 55,211)   DRY( 55,212)   DRY( 55,213)   DRY( 55,214)   DRY( 55,215)   
    DRY( 55,216)   DRY( 55,217)   DRY( 55,218)   DRY( 55,219)   DRY( 55,220)   
    DRY( 56,  1)   DRY( 56,  2)   DRY( 56,  3)   DRY( 56,  4)   DRY( 56,  5)   
    DRY( 56,  6)   DRY( 56,  7)   DRY( 56,  8)   DRY( 56,  9)   DRY( 56, 10)   
    DRY( 56, 11)   DRY( 56, 12)   DRY( 56, 13)   DRY( 56, 14)   DRY( 56, 15)   
    DRY( 56, 16)   DRY( 56, 17)   DRY( 56, 18)   DRY( 56, 19)   DRY( 56, 20)   
    DRY( 56, 21)   DRY( 56, 22)   DRY( 56, 23)   DRY( 56, 24)   DRY( 56, 25)   
    DRY( 56, 26)   DRY( 56, 27)   DRY( 56, 28)   DRY( 56, 29)   DRY( 56, 30)   
    DRY( 56, 31)   DRY( 56, 32)   DRY( 56, 33)   DRY( 56, 34)   DRY( 56, 35)   
    DRY( 56, 36)   DRY( 56, 37)   DRY( 56, 38)   DRY( 56, 39)   DRY( 56, 40)   
    DRY( 56, 41)   DRY( 56, 42)   DRY( 56, 43)   DRY( 56, 44)   DRY( 56, 45)   
    DRY( 56, 46)   DRY( 56, 47)   DRY( 56, 48)   DRY( 56, 49)   DRY( 56, 50)   
    DRY( 56, 51)   DRY( 56, 52)   DRY( 56, 53)   DRY( 56, 54)   DRY( 56, 55)   
    DRY( 56, 56)   DRY( 56, 57)   DRY( 56, 58)   DRY( 56, 59)   DRY( 56, 60)   
    DRY( 56, 61)   DRY( 56, 62)   DRY( 56, 63)   DRY( 56, 64)   DRY( 56, 65)   
    DRY( 56, 66)   DRY( 56, 67)   DRY( 56, 68)   DRY( 56, 69)   DRY( 56, 70)   
    DRY( 56, 71)   DRY( 56, 72)   DRY( 56, 73)   DRY( 56, 74)   DRY( 56, 75)   
    DRY( 56, 76)   DRY( 56, 77)   DRY( 56, 78)   DRY( 56, 79)   DRY( 56, 80)   
    DRY( 56, 81)   DRY( 56, 82)   DRY( 56, 83)   DRY( 56, 84)   DRY( 56, 85)   
    DRY( 56, 86)   DRY( 56, 87)   DRY( 56, 88)   DRY( 56, 89)   DRY( 56, 90)   
    DRY( 56, 91)   DRY( 56, 92)   DRY( 56, 93)   DRY( 56, 94)   DRY( 56, 95)   
    DRY( 56, 96)   DRY( 56, 97)   DRY( 56, 98)   DRY( 56, 99)   DRY( 56,100)   
    DRY( 56,101)   DRY( 56,102)   DRY( 56,103)   DRY( 56,104)   DRY( 56,105)   
    DRY( 56,106)   DRY( 56,107)   DRY( 56,108)   DRY( 56,109)   DRY( 56,110)   
    DRY( 56,111)   DRY( 56,112)   DRY( 56,113)   DRY( 56,114)   DRY( 56,115)   
    DRY( 56,116)   DRY( 56,117)   DRY( 56,118)   DRY( 56,119)   DRY( 56,120)   
    DRY( 56,121)   DRY( 56,122)   DRY( 56,123)   DRY( 56,124)   DRY( 56,125)   
    DRY( 56,126)   DRY( 56,127)   DRY( 56,128)   DRY( 56,129)   DRY( 56,130)   
    DRY( 56,131)   DRY( 56,132)   DRY( 56,133)   DRY( 56,134)   DRY( 56,135)   
    DRY( 56,136)   DRY( 56,137)   DRY( 56,138)   DRY( 56,139)   DRY( 56,140)   
    DRY( 56,141)   DRY( 56,142)   DRY( 56,143)   DRY( 56,144)   DRY( 56,145)   
    DRY( 56,146)   DRY( 56,147)   DRY( 56,148)   DRY( 56,149)   DRY( 56,150)   
    DRY( 56,151)   DRY( 56,152)   DRY( 56,153)   DRY( 56,154)   DRY( 56,155)   
    DRY( 56,156)   DRY( 56,157)   DRY( 56,158)   DRY( 56,159)   DRY( 56,160)   
    DRY( 56,161)   DRY( 56,162)   DRY( 56,163)   DRY( 56,164)   DRY( 56,165)   
    DRY( 56,166)   DRY( 56,167)   DRY( 56,168)   DRY( 56,169)   DRY( 56,170)   
    DRY( 56,171)   DRY( 56,172)   DRY( 56,173)   DRY( 56,174)   DRY( 56,175)   
    DRY( 56,176)   DRY( 56,177)   DRY( 56,178)   DRY( 56,179)   DRY( 56,180)   
    DRY( 56,181)   DRY( 56,182)   DRY( 56,183)   DRY( 56,184)   DRY( 56,185)   
    DRY( 56,186)   DRY( 56,187)   DRY( 56,188)   DRY( 56,189)   DRY( 56,190)   
    DRY( 56,191)   DRY( 56,192)   DRY( 56,193)   DRY( 56,194)   DRY( 56,195)   
    DRY( 56,196)   DRY( 56,197)   DRY( 56,198)   DRY( 56,199)   DRY( 56,200)   
    DRY( 56,201)   DRY( 56,202)   DRY( 56,203)   DRY( 56,204)   DRY( 56,205)   
    DRY( 56,206)   DRY( 56,207)   DRY( 56,208)   DRY( 56,209)   DRY( 56,210)   
    DRY( 56,211)   DRY( 56,212)   DRY( 56,213)   DRY( 56,214)   DRY( 56,215)   
    DRY( 56,216)   DRY( 56,217)   DRY( 56,218)   DRY( 56,219)   DRY( 56,220)   

 CELL CONVERSIONS FOR ITER.=  5  LAYER= 24  STEP=  1  PERIOD=   1   (ROW,COL)
    DRY( 59,  1)   DRY( 59,  2)   DRY( 59,  3)   DRY( 59,  4)   DRY( 59,  5)   
    DRY( 59,  6)   DRY( 59,  7)   DRY( 59,  8)   DRY( 59,  9)   DRY( 59, 10)   
    DRY( 59, 11)   DRY( 59, 12)   DRY( 59, 13)   DRY( 59, 14)   DRY( 59, 15)   
    DRY( 59, 16)   DRY( 59, 17)   DRY( 59, 18)   DRY( 59, 19)   DRY( 59, 20)   
    DRY( 59, 21)   DRY( 59, 22)   DRY( 59, 23)   DRY( 59, 24)   DRY( 59, 25)   
    DRY( 59, 26)   DRY( 59, 27)   DRY( 59, 28)   DRY( 59, 29)   DRY( 59, 30)   
    DRY( 59, 31)   DRY( 59, 32)   DRY( 59, 33)   DRY( 59, 34)   DRY( 59, 35)   
    DRY( 59, 36)   DRY( 59, 37)   DRY( 59, 38)   DRY( 59, 39)   DRY( 59, 40)   
    DRY( 59, 41)   DRY( 59, 42)   DRY( 59, 43)   DRY( 59, 44)   DRY( 59, 45)   
    DRY( 59, 46)   DRY( 59, 47)   DRY( 59, 48)   DRY( 59, 49)   DRY( 59, 50)   
    DRY( 59, 51)   DRY( 59, 52)   DRY( 59, 53)   DRY( 59, 54)   DRY( 59, 55)   
    DRY( 59, 56)   DRY( 59, 57)   DRY( 59, 58)   DRY( 59, 59)   DRY( 59, 60)   
    DRY( 59, 61)   DRY( 59, 62)   DRY( 59, 63)   DRY( 59, 64)   DRY( 59, 65)   
    DRY( 59, 66)   DRY( 59, 67)   DRY( 59, 68)   DRY( 59, 69)   DRY( 59, 70)   
    DRY( 59, 71)   DRY( 59, 72)   DRY( 59, 73)   DRY( 59, 74)   DRY( 59, 75)   
    DRY( 59, 76)   DRY( 59, 77)   DRY( 59, 78)   DRY( 59, 79)   DRY( 59, 80)   
    DRY( 59, 81)   DRY( 59, 82)   DRY( 59, 83)   DRY( 59, 84)   DRY( 59, 85)   
    DRY( 59, 86)   DRY( 59, 87)   DRY( 59, 88)   DRY( 59, 89)   DRY( 59, 90)   
    DRY( 59, 91)   DRY( 59, 92)   DRY( 59, 93)   DRY( 59, 94)   DRY( 59, 95)   
    DRY( 59, 96)   DRY( 59, 97)   DRY( 59, 98)   DRY( 59, 99)   DRY( 59,100)   
    DRY( 59,101)   DRY( 59,102)   DRY( 59,103)   DRY( 59,104)   DRY( 59,105)   
    DRY( 59,106)   DRY( 59,107)   DRY( 59,108)   DRY( 59,109)   DRY( 59,110)   
    DRY( 59,111)   DRY( 59,112)   DRY( 59,113)   DRY( 59,114)   DRY( 59,115)   
    DRY( 59,116)   DRY( 59,117)   DRY( 59,118)   DRY( 59,119)   DRY( 59,120)   
    DRY( 59,121)   DRY( 59,122)   DRY( 59,123)   DRY( 59,124)   DRY( 59,125)   
    DRY( 59,126)   DRY( 59,127)   DRY( 59,128)   DRY( 59,129)   DRY( 59,130)   
    DRY( 59,131)   DRY( 59,132)   DRY( 59,133)   DRY( 59,134)   DRY( 59,135)   
    DRY( 59,136)   DRY( 59,137)   DRY( 59,138)   DRY( 59,139)   DRY( 59,140)   
    DRY( 59,141)   DRY( 59,142)   DRY( 59,143)   DRY( 59,144)   DRY( 59,145)   
    DRY( 59,146)   DRY( 59,147)   DRY( 59,148)   DRY( 59,149)   DRY( 59,150)   
    DRY( 59,151)   DRY( 59,152)   DRY( 59,153)   DRY( 59,154)   DRY( 59,155)   
    DRY( 59,156)   DRY( 59,157)   DRY( 59,158)   DRY( 59,159)   DRY( 59,160)   
    DRY( 59,161)   DRY( 59,162)   DRY( 59,163)   DRY( 59,164)   DRY( 59,165)   
    DRY( 59,166)   DRY( 59,167)   DRY( 59,168)   DRY( 59,169)   DRY( 59,170)   
    DRY( 59,171)   DRY( 59,172)   DRY( 59,173)   DRY( 59,174)   DRY( 59,175)   
    DRY( 59,176)   DRY( 59,177)   DRY( 59,178)   DRY( 59,179)   DRY( 59,180)   
    DRY( 59,181)   DRY( 59,182)   DRY( 59,183)   DRY( 59,184)   DRY( 59,185)   
    DRY( 59,186)   DRY( 59,187)   DRY( 59,188)   DRY( 59,189)   DRY( 59,190)   
    DRY( 59,191)   DRY( 59,192)   DRY( 59,193)   DRY( 59,194)   DRY( 59,195)   
    DRY( 59,196)   DRY( 59,197)   DRY( 59,198)   DRY( 59,199)   DRY( 59,200)   
    DRY( 59,201)   DRY( 59,202)   DRY( 59,203)   DRY( 59,204)   DRY( 59,205)   
    DRY( 59,206)   DRY( 59,207)   DRY( 59,208)   DRY( 59,209)   DRY( 59,210)   
    DRY( 59,211)   DRY( 59,212)   DRY( 59,213)   DRY( 59,214)   DRY( 59,215)   
    DRY( 59,216)   DRY( 59,217)   DRY( 59,218)   DRY( 59,219)   DRY( 59,220)   
    DRY( 60,  1)   DRY( 60,  2)   DRY( 60,  3)   DRY( 60,  4)   DRY( 60,  5)   
    DRY( 60,  6)   DRY( 60,  7)   DRY( 60,  8)   DRY( 60,  9)   DRY( 60, 10)   
    DRY( 60, 11)   DRY( 60, 12)   DRY( 60, 13)   DRY( 60, 14)   DRY( 60, 15)   
    DRY( 60, 16)   DRY( 60, 17)   DRY( 60, 18)   DRY( 60, 19)   DRY( 60, 20)   
    DRY( 60, 21)   DRY( 60, 22)   DRY( 60, 23)   DRY( 60, 24)   DRY( 60, 25)   
    DRY( 60, 26)   DRY( 60, 27)   DRY( 60, 28)   DRY( 60, 29)   DRY( 60, 30)   
    DRY( 60, 31)   DRY( 60, 32)   DRY( 60, 33)   DRY( 60, 34)   DRY( 60, 35)   
    DRY( 60, 36)   DRY( 60, 37)   DRY( 60, 38)   DRY( 60, 39)   DRY( 60, 40)   
    DRY( 60, 41)   DRY( 60, 42)   DRY( 60, 43)   DRY( 60, 44)   DRY( 60, 45)   
    DRY( 60, 46)   DRY( 60, 47)   DRY( 60, 48)   DRY( 60, 49)   DRY( 60, 50)   
    DRY( 60, 51)   DRY( 60, 52)   DRY( 60, 53)   DRY( 60, 54)   DRY( 60, 55)   
    DRY( 60, 56)   DRY( 60, 57)   DRY( 60, 58)   DRY( 60, 59)   DRY( 60, 60)   
    DRY( 60, 61)   DRY( 60, 62)   DRY( 60, 63)   DRY( 60, 64)   DRY( 60, 65)   
    DRY( 60, 66)   DRY( 60, 67)   DRY( 60, 68)   DRY( 60, 69)   DRY( 60, 70)   
    DRY( 60, 71)   DRY( 60, 72)   DRY( 60, 73)   DRY( 60, 74)   DRY( 60, 75)   
    DRY( 60, 76)   DRY( 60, 77)   DRY( 60, 78)   DRY( 60, 79)   DRY( 60, 80)   
    DRY( 60, 81)   DRY( 60, 82)   DRY( 60, 83)   DRY( 60, 84)   DRY( 60, 85)   
    DRY( 60, 86)   DRY( 60, 87)   DRY( 60, 88)   DRY( 60, 89)   DRY( 60, 90)   
    DRY( 60, 91)   DRY( 60, 92)   DRY( 60, 93)   DRY( 60, 94)   DRY( 60, 95)   
    DRY( 60, 96)   DRY( 60, 97)   DRY( 60, 98)   DRY( 60, 99)   DRY( 60,100)   
    DRY( 60,101)   DRY( 60,102)   DRY( 60,103)   DRY( 60,104)   DRY( 60,105)   
    DRY( 60,106)   DRY( 60,107)   DRY( 60,108)   DRY( 60,109)   DRY( 60,110)   
    DRY( 60,111)   DRY( 60,112)   DRY( 60,113)   DRY( 60,114)   DRY( 60,115)   
    DRY( 60,116)   DRY( 60,117)   DRY( 60,118)   DRY( 60,119)   DRY( 60,120)   
    DRY( 60,121)   DRY( 60,122)   DRY( 60,123)   DRY( 60,124)   DRY( 60,125)   
    DRY( 60,126)   DRY( 60,127)   DRY( 60,128)   DRY( 60,129)   DRY( 60,130)   
    DRY( 60,131)   DRY( 60,132)   DRY( 60,133)   DRY( 60,134)   DRY( 60,135)   
    DRY( 60,136)   DRY( 60,137)   DRY( 60,138)   DRY( 60,139)   DRY( 60,140)   
    DRY( 60,141)   DRY( 60,142)   DRY( 60,143)   DRY( 60,144)   DRY( 60,145)   
    DRY( 60,146)   DRY( 60,147)   DRY( 60,148)   DRY( 60,149)   DRY( 60,150)   
    DRY( 60,151)   DRY( 60,152)   DRY( 60,153)   DRY( 60,154)   DRY( 60,155)   
    DRY( 60,156)   DRY( 60,157)   DRY( 60,158)   DRY( 60,159)   DRY( 60,160)   
    DRY( 60,161)   DRY( 60,162)   DRY( 60,163)   DRY( 60,164)   DRY( 60,165)   
    DRY( 60,166)   DRY( 60,167)   DRY( 60,168)   DRY( 60,169)   DRY( 60,170)   
    DRY( 60,171)   DRY( 60,172)   DRY( 60,173)   DRY( 60,174)   DRY( 60,175)   
    DRY( 60,176)   DRY( 60,177)   DRY( 60,178)   DRY( 60,179)   DRY( 60,180)   
    DRY( 60,181)   DRY( 60,182)   DRY( 60,183)   DRY( 60,184)   DRY( 60,185)   
    DRY( 60,186)   DRY( 60,187)   DRY( 60,188)   DRY( 60,189)   DRY( 60,190)   
    DRY( 60,191)   DRY( 60,192)   DRY( 60,193)   DRY( 60,194)   DRY( 60,195)   
    DRY( 60,196)   DRY( 60,197)   DRY( 60,198)   DRY( 60,199)   DRY( 60,200)   
    DRY( 60,201)   DRY( 60,202)   DRY( 60,203)   DRY( 60,204)   DRY( 60,205)   
    DRY( 60,206)   DRY( 60,207)   DRY( 60,208)   DRY( 60,209)   DRY( 60,210)   
    DRY( 60,211)   DRY( 60,212)   DRY( 60,213)   DRY( 60,214)   DRY( 60,215)   
    DRY( 60,216)   DRY( 60,217)   DRY( 60,218)   DRY( 60,219)   DRY( 60,220)   
    DRY( 61,  1)   DRY( 61,  2)   DRY( 61,  3)   DRY( 61,  4)   DRY( 61,  5)   
    DRY( 61,  6)   DRY( 61,  7)   DRY( 61,  8)   DRY( 61,  9)   DRY( 61, 10)   
    DRY( 61, 11)   DRY( 61, 12)   DRY( 61, 13)   DRY( 61, 14)   DRY( 61, 15)   
    DRY( 61, 16)   DRY( 61, 17)   DRY( 61, 18)   DRY( 61, 19)   DRY( 61, 20)   
    DRY( 61, 21)   DRY( 61, 22)   DRY( 61, 23)   DRY( 61, 24)   DRY( 61, 25)   
    DRY( 61, 26)   DRY( 61, 35)   DRY( 61, 36)   DRY( 61, 37)   DRY( 61, 38)   
    DRY( 61, 39)   DRY( 61, 40)   DRY( 61, 41)   DRY( 61, 42)   DRY( 61, 43)   
    DRY( 61, 44)   DRY( 61, 45)   DRY( 61, 46)   DRY( 61, 47)   DRY( 61, 48)   
    DRY( 61, 49)   DRY( 61, 50)   DRY( 61, 51)   DRY( 61, 52)   DRY( 61, 53)   
    DRY( 61, 54)   DRY( 61, 55)   DRY( 61, 56)   DRY( 61, 57)   DRY( 61, 58)   
    DRY( 61, 59)   DRY( 61, 60)   DRY( 61, 61)   DRY( 61, 62)   DRY( 61, 63)   
    DRY( 61, 64)   DRY( 61, 65)   DRY( 61, 66)   DRY( 61, 67)   DRY( 61, 68)   
    DRY( 61, 69)   DRY( 61, 70)   DRY( 61, 71)   DRY( 61, 72)   DRY( 61, 73)   
    DRY( 61, 74)   DRY( 61, 75)   DRY( 61, 76)   DRY( 61, 77)   DRY( 61, 78)   
    DRY( 61, 79)   DRY( 61, 80)   DRY( 61, 81)   DRY( 61, 82)   DRY( 61, 83)   
    DRY( 61, 84)   DRY( 61, 85)   DRY( 61, 86)   DRY( 61, 87)   DRY( 61, 88)   
    DRY( 61, 89)   DRY( 61, 90)   DRY( 61, 91)   DRY( 61, 92)   DRY( 61, 93)   
    DRY( 61, 94)   DRY( 61, 95)   DRY( 61, 96)   DRY( 61, 97)   DRY( 61, 98)   
    DRY( 61, 99)   DRY( 61,100)   DRY( 61,101)   DRY( 61,102)   DRY( 61,103)   
    DRY( 61,104)   DRY( 61,105)   DRY( 61,106)   DRY( 61,107)   DRY( 61,108)   
    DRY( 61,109)   DRY( 61,110)   DRY( 61,111)   DRY( 61,112)   DRY( 61,113)   
    DRY( 61,114)   DRY( 61,115)   DRY( 61,116)   DRY( 61,117)   DRY( 61,118)   
    DRY( 61,119)   DRY( 61,120)   DRY( 61,121)   DRY( 61,122)   DRY( 61,123)   
    DRY( 61,124)   DRY( 61,125)   DRY( 61,126)   DRY( 61,127)   DRY( 61,128)   
    DRY( 61,129)   DRY( 61,130)   DRY( 61,131)   DRY( 61,132)   DRY( 61,133)   
    DRY( 61,134)   DRY( 61,135)   DRY( 61,136)   DRY( 61,137)   DRY( 61,138)   
    DRY( 61,139)   DRY( 61,140)   DRY( 61,141)   DRY( 61,142)   DRY( 61,143)   
    DRY( 61,144)   DRY( 61,145)   DRY( 61,146)   DRY( 61,147)   DRY( 61,148)   
    DRY( 61,149)   DRY( 61,150)   DRY( 61,151)   DRY( 61,152)   DRY( 61,153)   
    DRY( 61,154)   DRY( 61,155)   DRY( 61,156)   DRY( 61,157)   DRY( 61,158)   
    DRY( 61,159)   DRY( 61,160)   DRY( 61,161)   DRY( 61,162)   DRY( 61,163)   
    DRY( 61,164)   DRY( 61,165)   DRY( 61,166)   DRY( 61,167)   DRY( 61,168)   
    DRY( 61,169)   DRY( 61,170)   DRY( 61,171)   DRY( 61,172)   DRY( 61,173)   
    DRY( 61,174)   DRY( 61,175)   DRY( 61,176)   DRY( 61,177)   DRY( 61,178)   
    DRY( 61,179)   DRY( 61,180)   DRY( 61,181)   DRY( 61,182)   DRY( 61,183)   
    DRY( 61,184)   DRY( 61,185)   DRY( 61,186)   DRY( 61,187)   DRY( 61,188)   
    DRY( 61,189)   DRY( 61,190)   DRY( 61,191)   DRY( 61,192)   DRY( 61,193)   
    DRY( 61,194)   DRY( 61,195)   DRY( 61,196)   DRY( 61,197)   DRY( 61,198)   
    DRY( 61,199)   DRY( 61,200)   DRY( 61,201)   DRY( 61,202)   DRY( 61,203)   
    DRY( 61,204)   DRY( 61,205)   DRY( 61,206)   DRY( 61,207)   DRY( 61,208)   
    DRY( 61,209)   DRY( 61,210)   DRY( 61,211)   DRY( 61,212)   DRY( 61,213)   
    DRY( 61,214)   DRY( 61,215)   DRY( 61,216)   DRY( 61,217)   DRY( 61,218)   
    DRY( 61,219)   DRY( 61,220)   

 CELL CONVERSIONS FOR ITER.=  5  LAYER= 25  STEP=  1  PERIOD=   1   (ROW,COL)
    DRY( 64,  1)   DRY( 64,  2)   DRY( 64,  3)   DRY( 64,  4)   DRY( 64,  5)   
    DRY( 64,  6)   DRY( 64,  7)   DRY( 64,  8)   DRY( 64,  9)   DRY( 64, 10)   
    DRY( 64, 11)   DRY( 64, 12)   DRY( 64, 13)   DRY( 64, 14)   DRY( 64, 15)   
    DRY( 64, 16)   DRY( 64, 17)   DRY( 64, 18)   DRY( 64, 19)   DRY( 64, 20)   
    DRY( 64, 21)   DRY( 64, 22)   DRY( 64, 23)   DRY( 64, 24)   DRY( 64, 25)   
    DRY( 64, 26)   DRY( 64, 27)   DRY( 64, 28)   DRY( 64, 29)   DRY( 64, 30)   
    DRY( 64, 31)   DRY( 64, 32)   DRY( 64, 33)   DRY( 64, 34)   DRY( 64, 35)   
    DRY( 64, 36)   DRY( 64, 37)   DRY( 64, 38)   DRY( 64, 39)   DRY( 64, 40)   
    DRY( 64, 41)   DRY( 64, 42)   DRY( 64, 43)   DRY( 64, 44)   DRY( 64, 45)   
    DRY( 64, 46)   DRY( 64, 47)   DRY( 64, 48)   DRY( 64, 49)   DRY( 64, 50)   
    DRY( 64, 51)   DRY( 64, 52)   DRY( 64, 53)   DRY( 64, 54)   DRY( 64, 55)   
    DRY( 64, 56)   DRY( 64, 57)   DRY( 64, 58)   DRY( 64, 59)   DRY( 64, 60)   
    DRY( 64, 61)   DRY( 64, 62)   DRY( 64, 63)   DRY( 64, 64)   DRY( 64, 65)   
    DRY( 64, 66)   DRY( 64, 67)   DRY( 64, 68)   DRY( 64, 69)   DRY( 64, 70)   
    DRY( 64, 71)   DRY( 64, 72)   DRY( 64, 73)   DRY( 64, 74)   DRY( 64, 75)   
    DRY( 64, 76)   DRY( 64, 77)   DRY( 64, 78)   DRY( 64, 79)   DRY( 64, 80)   
    DRY( 64, 81)   DRY( 64, 82)   DRY( 64, 83)   DRY( 64, 84)   DRY( 64, 85)   
    DRY( 64, 86)   DRY( 64, 87)   DRY( 64, 88)   DRY( 64, 89)   DRY( 64, 90)   
    DRY( 64, 91)   DRY( 64, 92)   DRY( 64, 93)   DRY( 64, 94)   DRY( 64, 95)   
    DRY( 64, 96)   DRY( 64, 97)   DRY( 64, 98)   DRY( 64, 99)   DRY( 64,100)   
    DRY( 64,101)   DRY( 64,102)   DRY( 64,103)   DRY( 64,104)   DRY( 64,105)   
    DRY( 64,106)   DRY( 64,107)   DRY( 64,108)   DRY( 64,109)   DRY( 64,110)   
    DRY( 64,111)   DRY( 64,112)   DRY( 64,113)   DRY( 64,114)   DRY( 64,115)   
    DRY( 64,116)   DRY( 64,117)   DRY( 64,118)   DRY( 64,119)   DRY( 64,120)   
    DRY( 64,121)   DRY( 64,122)   DRY( 64,123)   DRY( 64,124)   DRY( 64,125)   
    DRY( 64,126)   DRY( 64,127)   DRY( 64,128)   DRY( 64,129)   DRY( 64,130)   
    DRY( 64,131)   DRY( 64,132)   DRY( 64,133)   DRY( 64,134)   DRY( 64,135)   
    DRY( 64,136)   DRY( 64,137)   DRY( 64,138)   DRY( 64,139)   DRY( 64,140)   
    DRY( 64,141)   DRY( 64,142)   DRY( 64,143)   DRY( 64,144)   DRY( 64,145)   
    DRY( 64,146)   DRY( 64,147)   DRY( 64,148)   DRY( 64,149)   DRY( 64,150)   
    DRY( 64,151)   DRY( 64,152)   DRY( 64,153)   DRY( 64,154)   DRY( 64,155)   
    DRY( 64,156)   DRY( 64,157)   DRY( 64,158)   DRY( 64,159)   DRY( 64,160)   
    DRY( 64,161)   DRY( 64,162)   DRY( 64,163)   DRY( 64,164)   DRY( 64,165)   
    DRY( 64,166)   DRY( 64,167)   DRY( 64,168)   DRY( 64,169)   DRY( 64,170)   
    DRY( 64,171)   DRY( 64,172)   DRY( 64,173)   DRY( 64,174)   DRY( 64,175)   
    DRY( 64,176)   DRY( 64,177)   DRY( 64,178)   DRY( 64,179)   DRY( 64,180)   
    DRY( 64,181)   DRY( 64,182)   DRY( 64,183)   DRY( 64,184)   DRY( 64,185)   
    DRY( 64,186)   DRY( 64,187)   DRY( 64,188)   DRY( 64,189)   DRY( 64,190)   
    DRY( 64,191)   DRY( 64,192)   DRY( 64,193)   DRY( 64,194)   DRY( 64,195)   
    DRY( 64,196)   DRY( 64,197)   DRY( 64,198)   DRY( 64,199)   DRY( 64,200)   
    DRY( 64,201)   DRY( 64,202)   DRY( 64,203)   DRY( 64,204)   DRY( 64,205)   
    DRY( 64,206)   DRY( 64,207)   DRY( 64,208)   DRY( 64,209)   DRY( 64,210)   
    DRY( 64,211)   DRY( 64,212)   DRY( 64,213)   DRY( 64,214)   DRY( 64,215)   
    DRY( 64,216)   DRY( 64,217)   DRY( 64,218)   DRY( 64,219)   DRY( 64,220)   
    DRY( 65,  1)   DRY( 65,  2)   DRY( 65,  3)   DRY( 65,  4)   DRY( 65,  5)   
    DRY( 65,  6)   DRY( 65,  7)   DRY( 65,  8)   DRY( 65,  9)   DRY( 65, 10)   
    DRY( 65, 11)   DRY( 65, 12)   DRY( 65, 13)   DRY( 65, 14)   DRY( 65, 15)   
    DRY( 65, 16)   DRY( 65, 17)   DRY( 65, 18)   DRY( 65, 19)   DRY( 65, 20)   
    DRY( 65, 21)   DRY( 65, 22)   DRY( 65, 23)   DRY( 65, 24)   DRY( 65, 25)   
    DRY( 65, 26)   DRY( 65, 27)   DRY( 65, 28)   DRY( 65, 29)   DRY( 65, 30)   
    DRY( 65, 31)   DRY( 65, 32)   DRY( 65, 33)   DRY( 65, 34)   DRY( 65, 35)   
    DRY( 65, 36)   DRY( 65, 37)   DRY( 65, 38)   DRY( 65, 39)   DRY( 65, 40)   
    DRY( 65, 41)   DRY( 65, 42)   DRY( 65, 43)   DRY( 65, 44)   DRY( 65, 45)   
    DRY( 65, 46)   DRY( 65, 47)   DRY( 65, 48)   DRY( 65, 49)   DRY( 65, 50)   
    DRY( 65, 51)   DRY( 65, 52)   DRY( 65, 53)   DRY( 65, 54)   DRY( 65, 55)   
    DRY( 65, 56)   DRY( 65, 57)   DRY( 65, 58)   DRY( 65, 59)   DRY( 65, 60)   
    DRY( 65, 61)   DRY( 65, 62)   DRY( 65, 63)   DRY( 65, 64)   DRY( 65, 65)   
    DRY( 65, 66)   DRY( 65, 67)   DRY( 65, 68)   DRY( 65, 69)   DRY( 65, 70)   
    DRY( 65, 71)   DRY( 65, 72)   DRY( 65, 73)   DRY( 65, 74)   DRY( 65, 75)   
    DRY( 65, 76)   DRY( 65, 77)   DRY( 65, 78)   DRY( 65, 79)   DRY( 65, 80)   
    DRY( 65, 81)   DRY( 65, 82)   DRY( 65, 83)   DRY( 65, 84)   DRY( 65, 85)   
    DRY( 65, 86)   DRY( 65, 87)   DRY( 65, 88)   DRY( 65, 89)   DRY( 65, 90)   
    DRY( 65, 91)   DRY( 65, 92)   DRY( 65, 93)   DRY( 65, 94)   DRY( 65, 95)   
    DRY( 65, 96)   DRY( 65, 97)   DRY( 65, 98)   DRY( 65, 99)   DRY( 65,100)   
    DRY( 65,101)   DRY( 65,102)   DRY( 65,103)   DRY( 65,104)   DRY( 65,105)   
    DRY( 65,106)   DRY( 65,107)   DRY( 65,108)   DRY( 65,109)   DRY( 65,110)   
    DRY( 65,111)   DRY( 65,112)   DRY( 65,113)   DRY( 65,114)   DRY( 65,115)   
    DRY( 65,116)   DRY( 65,117)   DRY( 65,118)   DRY( 65,119)   DRY( 65,120)   
    DRY( 65,121)   DRY( 65,122)   DRY( 65,123)   DRY( 65,124)   DRY( 65,125)   
    DRY( 65,126)   DRY( 65,127)   DRY( 65,128)   DRY( 65,129)   DRY( 65,130)   
    DRY( 65,131)   DRY( 65,132)   DRY( 65,133)   DRY( 65,134)   DRY( 65,135)   
    DRY( 65,136)   DRY( 65,137)   DRY( 65,138)   DRY( 65,139)   DRY( 65,140)   
    DRY( 65,141)   DRY( 65,142)   DRY( 65,143)   DRY( 65,144)   DRY( 65,145)   
    DRY( 65,146)   DRY( 65,147)   DRY( 65,148)   DRY( 65,149)   DRY( 65,150)   
    DRY( 65,151)   DRY( 65,152)   DRY( 65,153)   DRY( 65,154)   DRY( 65,155)   
    DRY( 65,156)   DRY( 65,157)   DRY( 65,158)   DRY( 65,159)   DRY( 65,160)   
    DRY( 65,161)   DRY( 65,162)   DRY( 65,163)   DRY( 65,164)   DRY( 65,165)   
    DRY( 65,166)   DRY( 65,167)   DRY( 65,168)   DRY( 65,169)   DRY( 65,170)   
    DRY( 65,171)   DRY( 65,172)   DRY( 65,173)   DRY( 65,174)   DRY( 65,175)   
    DRY( 65,176)   DRY( 65,177)   DRY( 65,178)   DRY( 65,179)   DRY( 65,180)   
    DRY( 65,181)   DRY( 65,182)   DRY( 65,183)   DRY( 65,184)   DRY( 65,185)   
    DRY( 65,186)   DRY( 65,187)   DRY( 65,188)   DRY( 65,189)   DRY( 65,190)   
    DRY( 65,191)   DRY( 65,192)   DRY( 65,193)   DRY( 65,194)   DRY( 65,195)   
    DRY( 65,196)   DRY( 65,197)   DRY( 65,198)   DRY( 65,199)   DRY( 65,200)   
    DRY( 65,201)   DRY( 65,202)   DRY( 65,203)   DRY( 65,204)   DRY( 65,205)   
    DRY( 65,206)   DRY( 65,207)   DRY( 65,208)   DRY( 65,209)   DRY( 65,210)   
    DRY( 65,211)   DRY( 65,212)   DRY( 65,213)   DRY( 65,214)   DRY( 65,215)   
    DRY( 65,216)   DRY( 65,217)   DRY( 65,218)   DRY( 65,219)   DRY( 65,220)   
    DRY( 66,  1)   DRY( 66,  2)   DRY( 66,  3)   DRY( 66,  4)   DRY( 66,  5)   
    DRY( 66,  6)   DRY( 66,  7)   DRY( 66,  8)   DRY( 66,  9)   DRY( 66, 10)   
    DRY( 66, 11)   DRY( 66, 12)   DRY( 66, 13)   DRY( 66, 14)   DRY( 66, 15)   
    DRY( 66, 16)   DRY( 66, 17)   DRY( 66, 18)   DRY( 66, 19)   DRY( 66, 20)   
    DRY( 66, 21)   DRY( 66, 22)   DRY( 66, 23)   DRY( 66, 24)   DRY( 66, 25)   
    DRY( 66, 26)   DRY( 66, 27)   DRY( 66, 28)   DRY( 66, 29)   DRY( 66, 30)   
    DRY( 66, 31)   DRY( 66, 32)   DRY( 66, 33)   DRY( 66, 34)   DRY( 66, 35)   
    DRY( 66, 36)   DRY( 66, 37)   DRY( 66, 38)   DRY( 66, 39)   DRY( 66, 40)   
    DRY( 66, 41)   DRY( 66, 42)   DRY( 66, 43)   DRY( 66, 44)   DRY( 66, 45)   
    DRY( 66, 46)   DRY( 66, 47)   DRY( 66, 48)   DRY( 66, 49)   DRY( 66, 50)   
    DRY( 66, 51)   DRY( 66, 52)   DRY( 66, 53)   DRY( 66, 54)   DRY( 66, 55)   
    DRY( 66, 56)   DRY( 66, 57)   DRY( 66, 58)   DRY( 66, 59)   DRY( 66, 60)   
    DRY( 66, 61)   DRY( 66, 62)   DRY( 66, 63)   DRY( 66, 64)   DRY( 66, 65)   
    DRY( 66, 66)   DRY( 66, 67)   DRY( 66, 68)   DRY( 66, 69)   DRY( 66, 70)   
    DRY( 66, 71)   DRY( 66, 72)   DRY( 66, 73)   DRY( 66, 74)   DRY( 66, 75)   
    DRY( 66, 76)   DRY( 66, 77)   DRY( 66, 78)   DRY( 66, 79)   DRY( 66, 80)   
    DRY( 66, 81)   DRY( 66, 82)   DRY( 66, 83)   DRY( 66, 84)   DRY( 66, 85)   
    DRY( 66, 86)   DRY( 66, 87)   DRY( 66, 88)   DRY( 66, 89)   DRY( 66, 90)   
    DRY( 66, 91)   DRY( 66, 92)   DRY( 66, 93)   DRY( 66, 94)   DRY( 66, 95)   
    DRY( 66, 96)   DRY( 66, 97)   DRY( 66, 98)   DRY( 66, 99)   DRY( 66,100)   
    DRY( 66,101)   DRY( 66,102)   DRY( 66,103)   DRY( 66,104)   DRY( 66,105)   
    DRY( 66,106)   DRY( 66,107)   DRY( 66,108)   DRY( 66,109)   DRY( 66,110)   
    DRY( 66,111)   DRY( 66,112)   DRY( 66,113)   DRY( 66,114)   DRY( 66,115)   
    DRY( 66,116)   DRY( 66,117)   DRY( 66,118)   DRY( 66,119)   DRY( 66,120)   
    DRY( 66,121)   DRY( 66,122)   DRY( 66,123)   DRY( 66,124)   DRY( 66,125)   
    DRY( 66,126)   DRY( 66,127)   DRY( 66,128)   DRY( 66,129)   DRY( 66,130)   
    DRY( 66,131)   DRY( 66,132)   DRY( 66,133)   DRY( 66,134)   DRY( 66,135)   
    DRY( 66,136)   DRY( 66,137)   DRY( 66,138)   DRY( 66,139)   DRY( 66,140)   
    DRY( 66,141)   DRY( 66,142)   DRY( 66,143)   DRY( 66,144)   DRY( 66,145)   
    DRY( 66,146)   DRY( 66,147)   DRY( 66,148)   DRY( 66,149)   DRY( 66,150)   
    DRY( 66,151)   DRY( 66,152)   DRY( 66,153)   DRY( 66,154)   DRY( 66,155)   
    DRY( 66,156)   DRY( 66,157)   DRY( 66,158)   DRY( 66,159)   DRY( 66,160)   
    DRY( 66,161)   DRY( 66,162)   DRY( 66,163)   DRY( 66,164)   DRY( 66,165)   
    DRY( 66,166)   DRY( 66,167)   DRY( 66,168)   DRY( 66,169)   DRY( 66,170)   
    DRY( 66,171)   DRY( 66,172)   DRY( 66,173)   DRY( 66,174)   DRY( 66,175)   
    DRY( 66,176)   DRY( 66,177)   DRY( 66,178)   DRY( 66,179)   DRY( 66,180)   
    DRY( 66,181)   DRY( 66,182)   DRY( 66,183)   DRY( 66,184)   DRY( 66,185)   
    DRY( 66,186)   DRY( 66,187)   DRY( 66,188)   DRY( 66,189)   DRY( 66,190)   
    DRY( 66,191)   DRY( 66,192)   DRY( 66,193)   DRY( 66,194)   DRY( 66,195)   
    DRY( 66,196)   DRY( 66,197)   DRY( 66,198)   DRY( 66,199)   DRY( 66,200)   
    DRY( 66,201)   DRY( 66,202)   DRY( 66,203)   DRY( 66,204)   DRY( 66,205)   
    DRY( 66,206)   DRY( 66,207)   DRY( 66,208)   DRY( 66,209)   DRY( 66,210)   
    DRY( 66,211)   DRY( 66,212)   DRY( 66,213)   DRY( 66,214)   DRY( 66,215)   
    DRY( 66,216)   DRY( 66,217)   DRY( 66,218)   DRY( 66,219)   DRY( 66,220)   
    DRY( 67,136)   DRY( 67,137)   DRY( 67,138)   DRY( 67,139)   DRY( 67,140)   
    DRY( 67,141)   DRY( 67,142)   DRY( 67,143)   DRY( 67,144)   DRY( 67,145)   
    DRY( 67,146)   DRY( 67,147)   DRY( 67,148)   DRY( 67,149)   DRY( 67,150)   
    DRY( 67,151)   DRY( 67,152)   DRY( 67,153)   DRY( 67,154)   DRY( 67,155)   
    DRY( 67,156)   DRY( 67,157)   DRY( 67,158)   DRY( 67,159)   DRY( 67,160)   
    DRY( 67,161)   DRY( 67,162)   DRY( 67,163)   DRY( 67,164)   DRY( 67,165)   
    DRY( 67,166)   DRY( 67,167)   DRY( 67,168)   DRY( 67,169)   DRY( 67,170)   
    DRY( 67,171)   DRY( 67,172)   DRY( 67,173)   DRY( 67,174)   DRY( 67,175)   
    DRY( 67,176)   DRY( 67,177)   DRY( 67,178)   DRY( 67,179)   DRY( 67,180)   
    DRY( 67,181)   DRY( 67,182)   DRY( 67,183)   DRY( 67,184)   DRY( 67,185)   
    DRY( 67,186)   DRY( 67,187)   DRY( 67,188)   DRY( 67,189)   DRY( 67,190)   
    DRY( 67,191)   DRY( 67,192)   DRY( 67,193)   DRY( 67,194)   DRY( 67,195)   
    DRY( 67,196)   DRY( 67,197)   DRY( 67,198)   DRY( 67,199)   DRY( 67,200)   
    DRY( 67,201)   DRY( 67,202)   DRY( 67,203)   DRY( 67,204)   DRY( 67,205)   
    DRY( 67,206)   DRY( 67,207)   DRY( 67,208)   DRY( 67,209)   DRY( 67,210)   
    DRY( 67,211)   DRY( 67,212)   DRY( 67,213)   DRY( 67,214)   DRY( 67,215)   
    DRY( 67,216)   DRY( 67,217)   DRY( 67,218)   DRY( 67,219)   DRY( 67,220)   

 CELL CONVERSIONS FOR ITER.=  5  LAYER= 26  STEP=  1  PERIOD=   1   (ROW,COL)
    DRY( 69,  1)   DRY( 69,  2)   DRY( 69,  3)   DRY( 69,  4)   DRY( 69,  5)   
    DRY( 69,  6)   DRY( 69,  7)   DRY( 69,  8)   DRY( 69,  9)   DRY( 69, 10)   
    DRY( 69, 11)   DRY( 69, 12)   DRY( 69, 13)   DRY( 69, 14)   DRY( 69, 15)   
    DRY( 69, 16)   DRY( 69, 17)   DRY( 69, 18)   DRY( 69, 19)   DRY( 69, 20)   
    DRY( 69, 21)   DRY( 69, 22)   DRY( 69, 23)   DRY( 69, 24)   DRY( 69, 25)   
    DRY( 69, 26)   DRY( 69, 27)   DRY( 69, 28)   DRY( 69, 29)   DRY( 69, 30)   
    DRY( 69, 31)   DRY( 69, 32)   DRY( 69, 33)   DRY( 69, 34)   DRY( 69, 35)   
    DRY( 69, 36)   DRY( 69, 37)   DRY( 69, 38)   DRY( 69, 39)   DRY( 69, 40)   
    DRY( 69, 41)   DRY( 69, 42)   DRY( 69, 43)   DRY( 69, 44)   DRY( 69, 45)   
    DRY( 69, 46)   DRY( 69, 47)   DRY( 69, 48)   DRY( 69, 49)   DRY( 69, 50)   
    DRY( 69, 51)   DRY( 69, 52)   DRY( 69, 53)   DRY( 69, 54)   DRY( 69, 55)   
    DRY( 69, 56)   DRY( 69, 57)   DRY( 69, 58)   DRY( 69, 59)   DRY( 69, 60)   
    DRY( 69, 61)   DRY( 69, 62)   DRY( 69, 63)   DRY( 69, 64)   DRY( 69, 65)   
    DRY( 69, 66)   DRY( 69, 67)   DRY( 69, 68)   DRY( 69, 69)   DRY( 69, 70)   
    DRY( 69, 71)   DRY( 69, 72)   DRY( 69, 73)   DRY( 69, 74)   DRY( 69, 75)   
    DRY( 69, 76)   DRY( 69, 77)   DRY( 69, 78)   DRY( 69, 79)   DRY( 69, 80)   
    DRY( 69, 81)   DRY( 69, 82)   DRY( 69, 83)   DRY( 69, 84)   DRY( 69, 85)   
    DRY( 69, 86)   DRY( 69, 87)   DRY( 69, 88)   DRY( 69, 89)   DRY( 69, 90)   
    DRY( 69, 91)   DRY( 69, 92)   DRY( 69, 93)   DRY( 69, 94)   DRY( 69, 95)   
    DRY( 69, 96)   DRY( 69, 97)   DRY( 69, 98)   DRY( 69, 99)   DRY( 69,100)   
    DRY( 69,101)   DRY( 69,102)   DRY( 69,103)   DRY( 69,104)   DRY( 69,105)   
    DRY( 69,106)   DRY( 69,107)   DRY( 69,108)   DRY( 69,109)   DRY( 69,110)   
    DRY( 69,111)   DRY( 69,112)   DRY( 69,113)   DRY( 69,114)   DRY( 69,115)   
    DRY( 69,116)   DRY( 69,117)   DRY( 69,118)   DRY( 69,119)   DRY( 69,120)   
    DRY( 69,121)   DRY( 69,122)   DRY( 69,123)   DRY( 69,124)   DRY( 69,125)   
    DRY( 69,126)   DRY( 69,127)   DRY( 69,128)   DRY( 69,129)   DRY( 69,130)   
    DRY( 69,131)   DRY( 69,132)   DRY( 69,133)   DRY( 69,134)   DRY( 69,135)   
    DRY( 69,136)   DRY( 69,137)   DRY( 69,138)   DRY( 69,139)   DRY( 69,140)   
    DRY( 69,141)   DRY( 69,142)   DRY( 69,143)   DRY( 69,144)   DRY( 69,145)   
    DRY( 69,146)   DRY( 69,147)   DRY( 69,148)   DRY( 69,149)   DRY( 69,150)   
    DRY( 69,151)   DRY( 69,152)   DRY( 69,153)   DRY( 69,154)   DRY( 69,155)   
    DRY( 69,156)   DRY( 69,157)   DRY( 69,158)   DRY( 69,159)   DRY( 69,160)   
    DRY( 69,161)   DRY( 69,162)   DRY( 69,163)   DRY( 69,164)   DRY( 69,165)   
    DRY( 69,166)   DRY( 69,167)   DRY( 69,168)   DRY( 69,169)   DRY( 69,170)   
    DRY( 69,171)   DRY( 69,172)   DRY( 69,173)   DRY( 69,174)   DRY( 69,175)   
    DRY( 69,176)   DRY( 69,177)   DRY( 69,178)   DRY( 69,179)   DRY( 69,180)   
    DRY( 69,181)   DRY( 69,182)   DRY( 69,183)   DRY( 69,184)   DRY( 69,185)   
    DRY( 69,186)   DRY( 69,187)   DRY( 69,188)   DRY( 69,189)   DRY( 69,190)   
    DRY( 69,191)   DRY( 69,192)   DRY( 69,193)   DRY( 69,194)   DRY( 69,195)   
    DRY( 69,196)   DRY( 69,197)   DRY( 69,198)   DRY( 69,199)   DRY( 69,200)   
    DRY( 69,201)   DRY( 69,202)   DRY( 69,203)   DRY( 69,204)   DRY( 69,205)   
    DRY( 69,206)   DRY( 69,207)   DRY( 69,208)   DRY( 69,209)   DRY( 69,210)   
    DRY( 69,211)   DRY( 69,212)   DRY( 69,213)   DRY( 69,214)   DRY( 69,215)   
    DRY( 69,216)   DRY( 69,217)   DRY( 69,218)   DRY( 69,219)   DRY( 69,220)   
    DRY( 70,  1)   DRY( 70,  2)   DRY( 70,  3)   DRY( 70,  4)   DRY( 70,  5)   
    DRY( 70,  6)   DRY( 70,  7)   DRY( 70,  8)   DRY( 70,  9)   DRY( 70, 10)   
    DRY( 70, 11)   DRY( 70, 12)   DRY( 70, 13)   DRY( 70, 14)   DRY( 70, 15)   
    DRY( 70, 16)   DRY( 70, 17)   DRY( 70, 18)   DRY( 70, 19)   DRY( 70, 20)   
    DRY( 70, 21)   DRY( 70, 22)   DRY( 70, 23)   DRY( 70, 24)   DRY( 70, 25)   
    DRY( 70, 26)   DRY( 70, 27)   DRY( 70, 28)   DRY( 70, 29)   DRY( 70, 30)   
    DRY( 70, 31)   DRY( 70, 32)   DRY( 70, 33)   DRY( 70, 34)   DRY( 70, 35)   
    DRY( 70, 36)   DRY( 70, 37)   DRY( 70, 38)   DRY( 70, 39)   DRY( 70, 40)   
    DRY( 70, 41)   DRY( 70, 42)   DRY( 70, 43)   DRY( 70, 44)   DRY( 70, 45)   
    DRY( 70, 46)   DRY( 70, 47)   DRY( 70, 48)   DRY( 70, 49)   DRY( 70, 50)   
    DRY( 70, 51)   DRY( 70, 52)   DRY( 70, 53)   DRY( 70, 54)   DRY( 70, 55)   
    DRY( 70, 56)   DRY( 70, 57)   DRY( 70, 58)   DRY( 70, 59)   DRY( 70, 60)   
    DRY( 70, 61)   DRY( 70, 62)   DRY( 70, 63)   DRY( 70, 64)   DRY( 70, 65)   
    DRY( 70, 66)   DRY( 70, 67)   DRY( 70, 68)   DRY( 70, 69)   DRY( 70, 70)   
    DRY( 70, 71)   DRY( 70, 72)   DRY( 70, 73)   DRY( 70, 74)   DRY( 70, 75)   
    DRY( 70, 76)   DRY( 70, 77)   DRY( 70, 78)   DRY( 70, 79)   DRY( 70, 80)   
    DRY( 70, 81)   DRY( 70, 82)   DRY( 70, 83)   DRY( 70, 84)   DRY( 70, 85)   
    DRY( 70, 86)   DRY( 70, 87)   DRY( 70, 88)   DRY( 70, 89)   DRY( 70, 90)   
    DRY( 70, 91)   DRY( 70, 92)   DRY( 70, 93)   DRY( 70, 94)   DRY( 70, 95)   
    DRY( 70, 96)   DRY( 70, 97)   DRY( 70, 98)   DRY( 70, 99)   DRY( 70,100)   
    DRY( 70,101)   DRY( 70,102)   DRY( 70,103)   DRY( 70,104)   DRY( 70,105)   
    DRY( 70,106)   DRY( 70,107)   DRY( 70,108)   DRY( 70,109)   DRY( 70,110)   
    DRY( 70,111)   DRY( 70,112)   DRY( 70,113)   DRY( 70,114)   DRY( 70,115)   
    DRY( 70,116)   DRY( 70,117)   DRY( 70,118)   DRY( 70,119)   DRY( 70,120)   
    DRY( 70,121)   DRY( 70,122)   DRY( 70,123)   DRY( 70,124)   DRY( 70,125)   
    DRY( 70,126)   DRY( 70,127)   DRY( 70,128)   DRY( 70,129)   DRY( 70,130)   
    DRY( 70,131)   DRY( 70,132)   DRY( 70,133)   DRY( 70,134)   DRY( 70,135)   
    DRY( 70,136)   DRY( 70,137)   DRY( 70,138)   DRY( 70,139)   DRY( 70,140)   
    DRY( 70,141)   DRY( 70,142)   DRY( 70,143)   DRY( 70,144)   DRY( 70,145)   
    DRY( 70,146)   DRY( 70,147)   DRY( 70,148)   DRY( 70,149)   DRY( 70,150)   
    DRY( 70,151)   DRY( 70,152)   DRY( 70,153)   DRY( 70,154)   DRY( 70,155)   
    DRY( 70,156)   DRY( 70,157)   DRY( 70,158)   DRY( 70,159)   DRY( 70,160)   
    DRY( 70,161)   DRY( 70,162)   DRY( 70,163)   DRY( 70,164)   DRY( 70,165)   
    DRY( 70,166)   DRY( 70,167)   DRY( 70,168)   DRY( 70,169)   DRY( 70,170)   
    DRY( 70,171)   DRY( 70,172)   DRY( 70,173)   DRY( 70,174)   DRY( 70,175)   
    DRY( 70,176)   DRY( 70,177)   DRY( 70,178)   DRY( 70,179)   DRY( 70,180)   
    DRY( 70,181)   DRY( 70,182)   DRY( 70,183)   DRY( 70,184)   DRY( 70,185)   
    DRY( 70,186)   DRY( 70,187)   DRY( 70,188)   DRY( 70,189)   DRY( 70,190)   
    DRY( 70,191)   DRY( 70,192)   DRY( 70,193)   DRY( 70,194)   DRY( 70,195)   
    DRY( 70,196)   DRY( 70,197)   DRY( 70,198)   DRY( 70,199)   DRY( 70,200)   
    DRY( 70,201)   DRY( 70,202)   DRY( 70,203)   DRY( 70,204)   DRY( 70,205)   
    DRY( 70,206)   DRY( 70,207)   DRY( 70,208)   DRY( 70,209)   DRY( 70,210)   
    DRY( 70,211)   DRY( 70,212)   DRY( 70,213)   DRY( 70,214)   DRY( 70,215)   
    DRY( 70,216)   DRY( 70,217)   DRY( 70,218)   DRY( 70,219)   DRY( 70,220)   
    DRY( 71,  1)   DRY( 71,  2)   DRY( 71,  3)   DRY( 71,  4)   DRY( 71,  5)   
    DRY( 71,  6)   DRY( 71,  7)   DRY( 71,  8)   DRY( 71,  9)   DRY( 71, 10)   
    DRY( 71, 11)   DRY( 71, 12)   DRY( 71, 13)   DRY( 71, 14)   DRY( 71, 15)   
    DRY( 71, 16)   DRY( 71, 17)   DRY( 71, 18)   DRY( 71, 19)   DRY( 71, 20)   
    DRY( 71, 21)   DRY( 71, 22)   DRY( 71, 23)   DRY( 71, 24)   DRY( 71, 25)   
    DRY( 71, 26)   DRY( 71, 27)   DRY( 71, 28)   DRY( 71, 29)   DRY( 71, 30)   
    DRY( 71, 31)   DRY( 71, 32)   DRY( 71, 33)   DRY( 71, 34)   DRY( 71, 35)   
    DRY( 71, 36)   DRY( 71, 37)   DRY( 71, 38)   DRY( 71, 39)   DRY( 71, 40)   
    DRY( 71, 41)   DRY( 71, 42)   DRY( 71, 43)   DRY( 71, 44)   DRY( 71, 45)   
    DRY( 71, 46)   DRY( 71, 47)   DRY( 71, 48)   DRY( 71, 49)   DRY( 71, 50)   
    DRY( 71, 51)   DRY( 71, 52)   DRY( 71, 53)   DRY( 71, 54)   DRY( 71, 55)   
    DRY( 71, 56)   DRY( 71, 57)   DRY( 71, 58)   DRY( 71, 59)   DRY( 71, 60)   
    DRY( 71, 61)   DRY( 71, 62)   DRY( 71, 63)   DRY( 71, 64)   DRY( 71, 65)   
    DRY( 71, 66)   DRY( 71, 67)   DRY( 71, 68)   DRY( 71, 69)   DRY( 71, 70)   
    DRY( 71, 71)   DRY( 71, 72)   DRY( 71, 73)   DRY( 71, 74)   DRY( 71, 75)   
    DRY( 71, 76)   DRY( 71, 77)   DRY( 71, 78)   DRY( 71, 79)   DRY( 71, 80)   
    DRY( 71, 81)   DRY( 71, 82)   DRY( 71, 83)   DRY( 71, 84)   DRY( 71, 85)   
    DRY( 71, 86)   DRY( 71, 87)   DRY( 71, 88)   DRY( 71, 89)   DRY( 71, 90)   
    DRY( 71, 91)   DRY( 71, 92)   DRY( 71, 93)   DRY( 71, 94)   DRY( 71, 95)   
    DRY( 71, 96)   DRY( 71, 97)   DRY( 71, 98)   DRY( 71, 99)   DRY( 71,100)   
    DRY( 71,101)   DRY( 71,102)   DRY( 71,103)   DRY( 71,104)   DRY( 71,105)   
    DRY( 71,106)   DRY( 71,107)   DRY( 71,108)   DRY( 71,109)   DRY( 71,110)   
    DRY( 71,111)   DRY( 71,112)   DRY( 71,113)   DRY( 71,114)   DRY( 71,115)   
    DRY( 71,116)   DRY( 71,117)   DRY( 71,118)   DRY( 71,119)   DRY( 71,120)   
    DRY( 71,121)   DRY( 71,122)   DRY( 71,123)   DRY( 71,124)   DRY( 71,125)   
    DRY( 71,126)   DRY( 71,127)   DRY( 71,128)   DRY( 71,129)   DRY( 71,130)   
    DRY( 71,131)   DRY( 71,132)   DRY( 71,133)   DRY( 71,134)   DRY( 71,135)   
    DRY( 71,136)   DRY( 71,137)   DRY( 71,138)   DRY( 71,139)   DRY( 71,140)   
    DRY( 71,141)   DRY( 71,142)   DRY( 71,143)   DRY( 71,144)   DRY( 71,145)   
    DRY( 71,146)   DRY( 71,147)   DRY( 71,148)   DRY( 71,149)   DRY( 71,150)   
    DRY( 71,151)   DRY( 71,152)   DRY( 71,153)   DRY( 71,154)   DRY( 71,155)   
    DRY( 71,156)   DRY( 71,157)   DRY( 71,158)   DRY( 71,159)   DRY( 71,160)   
    DRY( 71,161)   DRY( 71,162)   DRY( 71,163)   DRY( 71,164)   DRY( 71,165)   
    DRY( 71,166)   DRY( 71,167)   DRY( 71,168)   DRY( 71,169)   DRY( 71,170)   
    DRY( 71,171)   DRY( 71,172)   DRY( 71,173)   DRY( 71,174)   DRY( 71,175)   
    DRY( 71,176)   DRY( 71,177)   DRY( 71,178)   DRY( 71,179)   DRY( 71,180)   
    DRY( 71,181)   DRY( 71,182)   DRY( 71,183)   DRY( 71,184)   DRY( 71,185)   
    DRY( 71,186)   DRY( 71,187)   DRY( 71,188)   DRY( 71,189)   DRY( 71,190)   
    DRY( 71,191)   DRY( 71,192)   DRY( 71,193)   DRY( 71,194)   DRY( 71,195)   
    DRY( 71,196)   DRY( 71,197)   DRY( 71,198)   DRY( 71,199)   DRY( 71,200)   
    DRY( 71,201)   DRY( 71,202)   DRY( 71,203)   DRY( 71,204)   DRY( 71,205)   
    DRY( 71,206)   DRY( 71,207)   DRY( 71,208)   DRY( 71,209)   DRY( 71,210)   
    DRY( 71,211)   DRY( 71,212)   DRY( 71,213)   DRY( 71,214)   DRY( 71,215)   
    DRY( 71,216)   DRY( 71,217)   DRY( 71,218)   DRY( 71,219)   DRY( 71,220)   
    DRY( 72,  1)   DRY( 72,  2)   DRY( 72,  3)   DRY( 72,  4)   DRY( 72,  5)   
    DRY( 72,  6)   DRY( 72,  7)   DRY( 72,  8)   DRY( 72,  9)   DRY( 72, 10)   
    DRY( 72, 11)   DRY( 72, 12)   DRY( 72, 13)   DRY( 72, 14)   DRY( 72, 15)   
    DRY( 72, 16)   DRY( 72, 17)   DRY( 72, 18)   DRY( 72, 19)   DRY( 72, 20)   
    DRY( 72, 21)   DRY( 72, 22)   DRY( 72, 23)   DRY( 72, 24)   DRY( 72, 25)   
    DRY( 72, 26)   DRY( 72, 27)   DRY( 72, 28)   DRY( 72, 29)   DRY( 72, 30)   
    DRY( 72, 31)   DRY( 72, 32)   DRY( 72, 33)   DRY( 72, 34)   DRY( 72, 35)   
    DRY( 72, 36)   DRY( 72, 37)   DRY( 72, 38)   DRY( 72, 39)   DRY( 72, 40)   
    DRY( 72, 41)   DRY( 72, 42)   DRY( 72, 43)   DRY( 72, 44)   DRY( 72, 45)   
    DRY( 72, 46)   DRY( 72, 47)   DRY( 72, 48)   DRY( 72, 49)   DRY( 72, 50)   
    DRY( 72, 51)   DRY( 72, 52)   DRY( 72, 53)   DRY( 72, 54)   DRY( 72, 55)   
    DRY( 72, 56)   DRY( 72, 57)   DRY( 72, 58)   DRY( 72, 59)   DRY( 72, 60)   
    DRY( 72, 61)   DRY( 72, 62)   DRY( 72, 63)   DRY( 72, 64)   DRY( 72, 65)   
    DRY( 72, 66)   DRY( 72, 67)   DRY( 72, 68)   DRY( 72, 69)   DRY( 72, 70)   
    DRY( 72, 71)   DRY( 72, 72)   DRY( 72, 73)   DRY( 72, 74)   DRY( 72, 75)   
    DRY( 72, 76)   DRY( 72, 77)   DRY( 72, 78)   DRY( 72, 79)   DRY( 72, 80)   
    DRY( 72, 81)   DRY( 72, 82)   DRY( 72, 83)   DRY( 72, 84)   DRY( 72, 85)   
    DRY( 72, 86)   DRY( 72, 87)   DRY( 72, 88)   DRY( 72, 89)   DRY( 72, 90)   
    DRY( 72, 91)   DRY( 72, 92)   DRY( 72, 93)   DRY( 72, 94)   DRY( 72, 95)   
    DRY( 72, 96)   DRY( 72, 97)   DRY( 72, 98)   DRY( 72, 99)   DRY( 72,100)   
    DRY( 72,101)   DRY( 72,102)   DRY( 72,103)   DRY( 72,104)   DRY( 72,105)   
    DRY( 72,106)   DRY( 72,107)   DRY( 72,108)   DRY( 72,109)   DRY( 72,110)   
    DRY( 72,111)   DRY( 72,112)   DRY( 72,113)   DRY( 72,114)   DRY( 72,115)   
    DRY( 72,116)   DRY( 72,117)   DRY( 72,118)   DRY( 72,119)   DRY( 72,120)   
    DRY( 72,121)   DRY( 72,122)   DRY( 72,123)   DRY( 72,124)   DRY( 72,125)   
    DRY( 72,126)   DRY( 72,127)   DRY( 72,128)   DRY( 72,129)   DRY( 72,130)   
    DRY( 72,131)   DRY( 72,132)   DRY( 72,133)   DRY( 72,134)   DRY( 72,135)   
    DRY( 72,136)   DRY( 72,137)   DRY( 72,138)   DRY( 72,139)   DRY( 72,140)   
    DRY( 72,141)   DRY( 72,142)   DRY( 72,143)   DRY( 72,144)   DRY( 72,145)   
    DRY( 72,146)   DRY( 72,147)   DRY( 72,148)   DRY( 72,149)   DRY( 72,150)   
    DRY( 72,151)   DRY( 72,152)   DRY( 72,153)   DRY( 72,154)   DRY( 72,155)   
    DRY( 72,156)   DRY( 72,157)   DRY( 72,158)   DRY( 72,159)   DRY( 72,160)   
    DRY( 72,161)   DRY( 72,162)   DRY( 72,163)   DRY( 72,164)   DRY( 72,165)   
    DRY( 72,166)   DRY( 72,167)   DRY( 72,168)   DRY( 72,169)   DRY( 72,170)   
    DRY( 72,171)   DRY( 72,172)   DRY( 72,173)   DRY( 72,174)   DRY( 72,175)   
    DRY( 72,176)   DRY( 72,177)   DRY( 72,178)   DRY( 72,179)   DRY( 72,180)   
    DRY( 72,181)   DRY( 72,182)   DRY( 72,183)   DRY( 72,184)   DRY( 72,185)   
    DRY( 72,186)   DRY( 72,187)   DRY( 72,188)   DRY( 72,189)   DRY( 72,190)   
    DRY( 72,191)   DRY( 72,192)   DRY( 72,193)   DRY( 72,194)   DRY( 72,195)   
    DRY( 72,196)   DRY( 72,197)   DRY( 72,198)   DRY( 72,199)   DRY( 72,200)   
    DRY( 72,201)   DRY( 72,202)   DRY( 72,203)   DRY( 72,204)   DRY( 72,205)   
    DRY( 72,206)   DRY( 72,207)   DRY( 72,208)   DRY( 72,209)   DRY( 72,210)   
    DRY( 72,211)   DRY( 72,212)   DRY( 72,213)   DRY( 72,214)   DRY( 72,215)   
    DRY( 72,216)   DRY( 72,217)   DRY( 72,218)   DRY( 72,219)   DRY( 72,220)   
    DRY( 73,119)   DRY( 73,120)   DRY( 73,121)   DRY( 73,122)   DRY( 73,123)   
    DRY( 73,124)   DRY( 73,125)   DRY( 73,126)   DRY( 73,127)   DRY( 73,128)   
    DRY( 73,129)   DRY( 73,130)   DRY( 73,131)   DRY( 73,132)   DRY( 73,133)   
    DRY( 73,134)   DRY( 73,135)   DRY( 73,136)   DRY( 73,137)   DRY( 73,138)   
    DRY( 73,139)   DRY( 73,140)   DRY( 73,141)   DRY( 73,142)   DRY( 73,143)   
    DRY( 73,144)   DRY( 73,145)   DRY( 73,146)   DRY( 73,147)   DRY( 73,148)   
    DRY( 73,149)   DRY( 73,150)   DRY( 73,151)   DRY( 73,152)   DRY( 73,153)   
    DRY( 73,154)   DRY( 73,155)   DRY( 73,156)   DRY( 73,157)   DRY( 73,158)   
    DRY( 73,159)   DRY( 73,160)   DRY( 73,161)   DRY( 73,162)   DRY( 73,163)   
    DRY( 73,164)   DRY( 73,165)   DRY( 73,166)   DRY( 73,167)   DRY( 73,168)   
    DRY( 73,169)   DRY( 73,170)   DRY( 73,171)   DRY( 73,172)   DRY( 73,173)   
    DRY( 73,174)   DRY( 73,175)   DRY( 73,176)   DRY( 73,177)   DRY( 73,178)   
    DRY( 73,179)   DRY( 73,180)   DRY( 73,181)   DRY( 73,182)   DRY( 73,183)   
    DRY( 73,184)   DRY( 73,185)   DRY( 73,186)   DRY( 73,187)   DRY( 73,188)   
    DRY( 73,189)   DRY( 73,190)   DRY( 73,191)   DRY( 73,192)   DRY( 73,193)   
    DRY( 73,194)   DRY( 73,195)   DRY( 73,196)   DRY( 73,197)   DRY( 73,198)   
    DRY( 73,199)   DRY( 73,200)   DRY( 73,201)   DRY( 73,202)   DRY( 73,203)   
    DRY( 73,204)   DRY( 73,205)   DRY( 73,206)   DRY( 73,207)   DRY( 73,208)   
    DRY( 73,209)   DRY( 73,210)   DRY( 73,211)   DRY( 73,212)   DRY( 73,213)   
    DRY( 73,214)   DRY( 73,215)   DRY( 73,216)   DRY( 73,217)   DRY( 73,218)   
    DRY( 73,219)   DRY( 73,220)   

 CELL CONVERSIONS FOR ITER.=  5  LAYER= 27  STEP=  1  PERIOD=   1   (ROW,COL)
    DRY( 75,  1)   DRY( 75,  2)   DRY( 75,  3)   DRY( 75,  4)   DRY( 75,  5)   
    DRY( 75,  6)   DRY( 75,  7)   DRY( 75,  8)   DRY( 75,  9)   DRY( 75, 10)   
    DRY( 75, 11)   DRY( 75, 12)   DRY( 75, 13)   DRY( 75, 14)   DRY( 75, 15)   
    DRY( 75, 16)   DRY( 75, 17)   DRY( 75, 18)   DRY( 75, 19)   DRY( 75, 20)   
    DRY( 75, 21)   DRY( 75, 22)   DRY( 75, 23)   DRY( 75, 24)   DRY( 75, 25)   
    DRY( 75, 26)   DRY( 75, 27)   DRY( 75, 28)   DRY( 75, 29)   DRY( 75, 30)   
    DRY( 75, 31)   DRY( 75, 32)   DRY( 75, 33)   DRY( 75, 34)   DRY( 75, 35)   
    DRY( 75, 36)   DRY( 75, 37)   DRY( 75, 38)   DRY( 75, 39)   DRY( 75, 40)   
    DRY( 75, 41)   DRY( 75, 42)   DRY( 75, 43)   DRY( 75, 44)   DRY( 75, 45)   
    DRY( 75, 46)   DRY( 75, 47)   DRY( 75, 48)   DRY( 75, 49)   DRY( 75, 50)   
    DRY( 75, 51)   DRY( 75, 52)   DRY( 75, 53)   DRY( 75, 54)   DRY( 75, 55)   
    DRY( 75, 56)   DRY( 75, 57)   DRY( 75, 58)   DRY( 75, 59)   DRY( 75, 60)   
    DRY( 75, 61)   DRY( 75, 62)   DRY( 75, 63)   DRY( 75, 64)   DRY( 75, 65)   
    DRY( 75, 66)   DRY( 75, 67)   DRY( 75, 68)   DRY( 75, 69)   DRY( 75, 70)   
    DRY( 75, 71)   DRY( 75, 72)   DRY( 75, 73)   DRY( 75, 74)   DRY( 75, 75)   
    DRY( 75, 76)   DRY( 75, 77)   DRY( 75, 78)   DRY( 75, 79)   DRY( 75, 80)   
    DRY( 75, 81)   DRY( 75, 82)   DRY( 75, 83)   DRY( 75, 84)   DRY( 75, 85)   
    DRY( 75, 86)   DRY( 75, 87)   DRY( 75, 88)   DRY( 75, 89)   DRY( 75, 90)   
    DRY( 75, 91)   DRY( 75, 92)   DRY( 75, 93)   DRY( 75, 94)   DRY( 75, 95)   
    DRY( 75, 96)   DRY( 75, 97)   DRY( 75, 98)   DRY( 75, 99)   DRY( 75,100)   
    DRY( 75,101)   DRY( 75,102)   DRY( 75,103)   DRY( 75,104)   DRY( 75,105)   
    DRY( 75,106)   DRY( 75,107)   DRY( 75,108)   DRY( 75,109)   DRY( 75,110)   
    DRY( 75,111)   DRY( 75,112)   DRY( 75,113)   DRY( 75,114)   DRY( 75,115)   
    DRY( 75,116)   DRY( 75,117)   DRY( 75,118)   DRY( 75,119)   DRY( 75,120)   
    DRY( 75,121)   DRY( 75,122)   DRY( 75,123)   DRY( 75,124)   DRY( 75,125)   
    DRY( 75,126)   DRY( 75,127)   DRY( 75,128)   DRY( 75,129)   DRY( 75,130)   
    DRY( 75,131)   DRY( 75,132)   DRY( 75,133)   DRY( 75,134)   DRY( 75,135)   
    DRY( 75,136)   DRY( 75,137)   DRY( 75,138)   DRY( 75,139)   DRY( 75,140)   
    DRY( 75,141)   DRY( 75,142)   DRY( 75,143)   DRY( 75,144)   DRY( 75,145)   
    DRY( 75,146)   DRY( 75,147)   DRY( 75,148)   DRY( 75,149)   DRY( 75,150)   
    DRY( 75,151)   DRY( 75,152)   DRY( 75,153)   DRY( 75,154)   DRY( 75,155)   
    DRY( 75,156)   DRY( 75,157)   DRY( 75,158)   DRY( 75,159)   DRY( 75,160)   
    DRY( 75,161)   DRY( 75,162)   DRY( 75,163)   DRY( 75,164)   DRY( 75,165)   
    DRY( 75,166)   DRY( 75,167)   DRY( 75,168)   DRY( 75,169)   DRY( 75,170)   
    DRY( 75,171)   DRY( 75,172)   DRY( 75,173)   DRY( 75,174)   DRY( 75,175)   
    DRY( 75,176)   DRY( 75,177)   DRY( 75,178)   DRY( 75,179)   DRY( 75,180)   
    DRY( 75,181)   DRY( 75,182)   DRY( 75,183)   DRY( 75,184)   DRY( 75,185)   
    DRY( 75,186)   DRY( 75,187)   DRY( 75,188)   DRY( 75,189)   DRY( 75,190)   
    DRY( 75,191)   DRY( 75,192)   DRY( 75,193)   DRY( 75,194)   DRY( 75,195)   
    DRY( 75,196)   DRY( 75,197)   DRY( 75,198)   DRY( 75,199)   DRY( 75,200)   
    DRY( 75,201)   DRY( 75,202)   DRY( 75,203)   DRY( 75,204)   DRY( 75,205)   
    DRY( 75,206)   DRY( 75,207)   DRY( 75,208)   DRY( 75,209)   DRY( 75,210)   
    DRY( 75,211)   DRY( 75,212)   DRY( 75,213)   DRY( 75,214)   DRY( 75,215)   
    DRY( 75,216)   DRY( 75,217)   DRY( 75,218)   DRY( 75,219)   DRY( 75,220)   
    DRY( 76,  1)   DRY( 76,  2)   DRY( 76,  3)   DRY( 76,  4)   DRY( 76,  5)   
    DRY( 76,  6)   DRY( 76,  7)   DRY( 76,  8)   DRY( 76,  9)   DRY( 76, 10)   
    DRY( 76, 11)   DRY( 76, 12)   DRY( 76, 13)   DRY( 76, 14)   DRY( 76, 15)   
    DRY( 76, 16)   DRY( 76, 17)   DRY( 76, 18)   DRY( 76, 19)   DRY( 76, 20)   
    DRY( 76, 21)   DRY( 76, 22)   DRY( 76, 23)   DRY( 76, 24)   DRY( 76, 25)   
    DRY( 76, 26)   DRY( 76, 27)   DRY( 76, 28)   DRY( 76, 29)   DRY( 76, 30)   
    DRY( 76, 31)   DRY( 76, 32)   DRY( 76, 33)   DRY( 76, 34)   DRY( 76, 35)   
    DRY( 76, 36)   DRY( 76, 37)   DRY( 76, 38)   DRY( 76, 39)   DRY( 76, 40)   
    DRY( 76, 41)   DRY( 76, 42)   DRY( 76, 43)   DRY( 76, 44)   DRY( 76, 45)   
    DRY( 76, 46)   DRY( 76, 47)   DRY( 76, 48)   DRY( 76, 49)   DRY( 76, 50)   
    DRY( 76, 51)   DRY( 76, 52)   DRY( 76, 53)   DRY( 76, 54)   DRY( 76, 55)   
    DRY( 76, 56)   DRY( 76, 57)   DRY( 76, 58)   DRY( 76, 59)   DRY( 76, 60)   
    DRY( 76, 61)   DRY( 76, 62)   DRY( 76, 63)   DRY( 76, 64)   DRY( 76, 65)   
    DRY( 76, 66)   DRY( 76, 67)   DRY( 76, 68)   DRY( 76, 69)   DRY( 76, 70)   
    DRY( 76, 71)   DRY( 76, 72)   DRY( 76, 73)   DRY( 76, 74)   DRY( 76, 75)   
    DRY( 76, 76)   DRY( 76, 77)   DRY( 76, 78)   DRY( 76, 79)   DRY( 76, 80)   
    DRY( 76, 81)   DRY( 76, 82)   DRY( 76, 83)   DRY( 76, 84)   DRY( 76, 85)   
    DRY( 76, 86)   DRY( 76, 87)   DRY( 76, 88)   DRY( 76, 89)   DRY( 76, 90)   
    DRY( 76, 91)   DRY( 76, 92)   DRY( 76, 93)   DRY( 76, 94)   DRY( 76, 95)   
    DRY( 76, 96)   DRY( 76, 97)   DRY( 76, 98)   DRY( 76, 99)   DRY( 76,100)   
    DRY( 76,101)   DRY( 76,102)   DRY( 76,103)   DRY( 76,104)   DRY( 76,105)   
    DRY( 76,106)   DRY( 76,107)   DRY( 76,108)   DRY( 76,109)   DRY( 76,110)   
    DRY( 76,111)   DRY( 76,112)   DRY( 76,113)   DRY( 76,114)   DRY( 76,115)   
    DRY( 76,116)   DRY( 76,117)   DRY( 76,118)   DRY( 76,119)   DRY( 76,120)   
    DRY( 76,121)   DRY( 76,122)   DRY( 76,123)   DRY( 76,124)   DRY( 76,125)   
    DRY( 76,126)   DRY( 76,127)   DRY( 76,128)   DRY( 76,129)   DRY( 76,130)   
    DRY( 76,131)   DRY( 76,132)   DRY( 76,133)   DRY( 76,134)   DRY( 76,135)   
    DRY( 76,136)   DRY( 76,137)   DRY( 76,138)   DRY( 76,139)   DRY( 76,140)   
    DRY( 76,141)   DRY( 76,142)   DRY( 76,143)   DRY( 76,144)   DRY( 76,145)   
    DRY( 76,146)   DRY( 76,147)   DRY( 76,148)   DRY( 76,149)   DRY( 76,150)   
    DRY( 76,151)   DRY( 76,152)   DRY( 76,153)   DRY( 76,154)   DRY( 76,155)   
    DRY( 76,156)   DRY( 76,157)   DRY( 76,158)   DRY( 76,159)   DRY( 76,160)   
    DRY( 76,161)   DRY( 76,162)   DRY( 76,163)   DRY( 76,164)   DRY( 76,165)   
    DRY( 76,166)   DRY( 76,167)   DRY( 76,168)   DRY( 76,169)   DRY( 76,170)   
    DRY( 76,171)   DRY( 76,172)   DRY( 76,173)   DRY( 76,174)   DRY( 76,175)   
    DRY( 76,176)   DRY( 76,177)   DRY( 76,178)   DRY( 76,179)   DRY( 76,180)   
    DRY( 76,181)   DRY( 76,182)   DRY( 76,183)   DRY( 76,184)   DRY( 76,185)   
    DRY( 76,186)   DRY( 76,187)   DRY( 76,188)   DRY( 76,189)   DRY( 76,190)   
    DRY( 76,191)   DRY( 76,192)   DRY( 76,193)   DRY( 76,194)   DRY( 76,195)   
    DRY( 76,196)   DRY( 76,197)   DRY( 76,198)   DRY( 76,199)   DRY( 76,200)   
    DRY( 76,201)   DRY( 76,202)   DRY( 76,203)   DRY( 76,204)   DRY( 76,205)   
    DRY( 76,206)   DRY( 76,207)   DRY( 76,208)   DRY( 76,209)   DRY( 76,210)   
    DRY( 76,211)   DRY( 76,212)   DRY( 76,213)   DRY( 76,214)   DRY( 76,215)   
    DRY( 76,216)   DRY( 76,217)   DRY( 76,218)   DRY( 76,219)   DRY( 76,220)   
    DRY( 77,  1)   DRY( 77,  2)   DRY( 77,  3)   DRY( 77,  4)   DRY( 77,  5)   
    DRY( 77,  6)   DRY( 77,  7)   DRY( 77,  8)   DRY( 77,  9)   DRY( 77, 10)   
    DRY( 77, 11)   DRY( 77, 12)   DRY( 77, 13)   DRY( 77, 14)   DRY( 77, 15)   
    DRY( 77, 16)   DRY( 77, 17)   DRY( 77, 18)   DRY( 77, 19)   DRY( 77, 20)   
    DRY( 77, 21)   DRY( 77, 22)   DRY( 77, 23)   DRY( 77, 24)   DRY( 77, 25)   
    DRY( 77, 26)   DRY( 77, 27)   DRY( 77, 28)   DRY( 77, 29)   DRY( 77, 30)   
    DRY( 77, 31)   DRY( 77, 32)   DRY( 77, 33)   DRY( 77, 34)   DRY( 77, 35)   
    DRY( 77, 36)   DRY( 77, 37)   DRY( 77, 38)   DRY( 77, 39)   DRY( 77, 40)   
    DRY( 77, 41)   DRY( 77, 42)   DRY( 77, 43)   DRY( 77, 44)   DRY( 77, 45)   
    DRY( 77, 46)   DRY( 77, 47)   DRY( 77, 48)   DRY( 77, 49)   DRY( 77, 50)   
    DRY( 77, 51)   DRY( 77, 52)   DRY( 77, 53)   DRY( 77, 54)   DRY( 77, 55)   
    DRY( 77, 56)   DRY( 77, 57)   DRY( 77, 58)   DRY( 77, 59)   DRY( 77, 60)   
    DRY( 77, 61)   DRY( 77, 62)   DRY( 77, 63)   DRY( 77, 64)   DRY( 77, 65)   
    DRY( 77, 66)   DRY( 77, 67)   DRY( 77, 68)   DRY( 77, 69)   DRY( 77, 70)   
    DRY( 77, 71)   DRY( 77, 72)   DRY( 77, 73)   DRY( 77, 74)   DRY( 77, 75)   
    DRY( 77, 76)   DRY( 77, 77)   DRY( 77, 78)   DRY( 77, 79)   DRY( 77, 80)   
    DRY( 77, 81)   DRY( 77, 82)   DRY( 77, 83)   DRY( 77, 84)   DRY( 77, 85)   
    DRY( 77, 86)   DRY( 77, 87)   DRY( 77, 88)   DRY( 77, 89)   DRY( 77, 90)   
    DRY( 77, 91)   DRY( 77, 92)   DRY( 77, 93)   DRY( 77, 94)   DRY( 77, 95)   
    DRY( 77, 96)   DRY( 77, 97)   DRY( 77, 98)   DRY( 77, 99)   DRY( 77,100)   
    DRY( 77,101)   DRY( 77,102)   DRY( 77,103)   DRY( 77,104)   DRY( 77,105)   
    DRY( 77,106)   DRY( 77,107)   DRY( 77,108)   DRY( 77,109)   DRY( 77,110)   
    DRY( 77,111)   DRY( 77,112)   DRY( 77,113)   DRY( 77,114)   DRY( 77,115)   
    DRY( 77,116)   DRY( 77,117)   DRY( 77,118)   DRY( 77,119)   DRY( 77,120)   
    DRY( 77,121)   DRY( 77,122)   DRY( 77,123)   DRY( 77,124)   DRY( 77,125)   
    DRY( 77,126)   DRY( 77,127)   DRY( 77,128)   DRY( 77,129)   DRY( 77,130)   
    DRY( 77,131)   DRY( 77,132)   DRY( 77,133)   DRY( 77,134)   DRY( 77,135)   
    DRY( 77,136)   DRY( 77,137)   DRY( 77,138)   DRY( 77,139)   DRY( 77,140)   
    DRY( 77,141)   DRY( 77,142)   DRY( 77,143)   DRY( 77,144)   DRY( 77,145)   
    DRY( 77,146)   DRY( 77,147)   DRY( 77,148)   DRY( 77,149)   DRY( 77,150)   
    DRY( 77,151)   DRY( 77,152)   DRY( 77,153)   DRY( 77,154)   DRY( 77,155)   
    DRY( 77,156)   DRY( 77,157)   DRY( 77,158)   DRY( 77,159)   DRY( 77,160)   
    DRY( 77,161)   DRY( 77,162)   DRY( 77,163)   DRY( 77,164)   DRY( 77,165)   
    DRY( 77,166)   DRY( 77,167)   DRY( 77,168)   DRY( 77,169)   DRY( 77,170)   
    DRY( 77,171)   DRY( 77,172)   DRY( 77,173)   DRY( 77,174)   DRY( 77,175)   
    DRY( 77,176)   DRY( 77,177)   DRY( 77,178)   DRY( 77,179)   DRY( 77,180)   
    DRY( 77,181)   DRY( 77,182)   DRY( 77,183)   DRY( 77,184)   DRY( 77,185)   
    DRY( 77,186)   DRY( 77,187)   DRY( 77,188)   DRY( 77,189)   DRY( 77,190)   
    DRY( 77,191)   DRY( 77,192)   DRY( 77,193)   DRY( 77,194)   DRY( 77,195)   
    DRY( 77,196)   DRY( 77,197)   DRY( 77,198)   DRY( 77,199)   DRY( 77,200)   
    DRY( 77,201)   DRY( 77,202)   DRY( 77,203)   DRY( 77,204)   DRY( 77,205)   
    DRY( 77,206)   DRY( 77,207)   DRY( 77,208)   DRY( 77,209)   DRY( 77,210)   
    DRY( 77,211)   DRY( 77,212)   DRY( 77,213)   DRY( 77,214)   DRY( 77,215)   
    DRY( 77,216)   DRY( 77,217)   DRY( 77,218)   DRY( 77,219)   DRY( 77,220)   
    DRY( 78,  1)   DRY( 78,  2)   DRY( 78,  3)   DRY( 78,  4)   DRY( 78,  5)   
    DRY( 78,  6)   DRY( 78,  7)   DRY( 78,  8)   DRY( 78,  9)   DRY( 78, 10)   
    DRY( 78, 11)   DRY( 78, 12)   DRY( 78, 13)   DRY( 78, 14)   DRY( 78, 15)   
    DRY( 78, 16)   DRY( 78, 17)   DRY( 78, 18)   DRY( 78, 19)   DRY( 78, 20)   
    DRY( 78, 21)   DRY( 78, 22)   DRY( 78, 23)   DRY( 78, 24)   DRY( 78, 25)   
    DRY( 78, 26)   DRY( 78, 27)   DRY( 78, 28)   DRY( 78, 29)   DRY( 78, 30)   
    DRY( 78, 31)   DRY( 78, 32)   DRY( 78, 33)   DRY( 78, 34)   DRY( 78, 35)   
    DRY( 78, 36)   DRY( 78, 37)   DRY( 78, 38)   DRY( 78, 39)   DRY( 78, 40)   
    DRY( 78, 41)   DRY( 78, 42)   DRY( 78, 43)   DRY( 78, 44)   DRY( 78, 45)   
    DRY( 78, 46)   DRY( 78, 47)   DRY( 78, 48)   DRY( 78, 49)   DRY( 78, 50)   
    DRY( 78, 51)   DRY( 78, 52)   DRY( 78, 53)   DRY( 78, 54)   DRY( 78, 55)   
    DRY( 78, 56)   DRY( 78, 57)   DRY( 78, 58)   DRY( 78, 59)   DRY( 78, 60)   
    DRY( 78, 61)   DRY( 78, 62)   DRY( 78, 63)   DRY( 78, 64)   DRY( 78, 65)   
    DRY( 78, 66)   DRY( 78, 67)   DRY( 78, 68)   DRY( 78, 69)   DRY( 78, 70)   
    DRY( 78, 71)   DRY( 78, 72)   DRY( 78, 73)   DRY( 78, 74)   DRY( 78, 75)   
    DRY( 78, 76)   DRY( 78, 77)   DRY( 78, 78)   DRY( 78, 79)   DRY( 78, 80)   
    DRY( 78, 81)   DRY( 78, 82)   DRY( 78, 83)   DRY( 78, 84)   DRY( 78, 85)   
    DRY( 78, 86)   DRY( 78, 87)   DRY( 78, 88)   DRY( 78, 89)   DRY( 78, 90)   
    DRY( 78, 91)   DRY( 78, 92)   DRY( 78, 93)   DRY( 78, 94)   DRY( 78, 95)   
    DRY( 78, 96)   DRY( 78, 97)   DRY( 78, 98)   DRY( 78, 99)   DRY( 78,100)   
    DRY( 78,101)   DRY( 78,102)   DRY( 78,103)   DRY( 78,104)   DRY( 78,105)   
    DRY( 78,106)   DRY( 78,107)   DRY( 78,108)   DRY( 78,109)   DRY( 78,110)   
    DRY( 78,111)   DRY( 78,112)   DRY( 78,113)   DRY( 78,114)   DRY( 78,115)   
    DRY( 78,116)   DRY( 78,117)   DRY( 78,118)   DRY( 78,119)   DRY( 78,120)   
    DRY( 78,121)   DRY( 78,122)   DRY( 78,123)   DRY( 78,124)   DRY( 78,125)   
    DRY( 78,126)   DRY( 78,127)   DRY( 78,128)   DRY( 78,129)   DRY( 78,130)   
    DRY( 78,131)   DRY( 78,132)   DRY( 78,133)   DRY( 78,134)   DRY( 78,135)   
    DRY( 78,136)   DRY( 78,137)   DRY( 78,138)   DRY( 78,139)   DRY( 78,140)   
    DRY( 78,141)   DRY( 78,142)   DRY( 78,143)   DRY( 78,144)   DRY( 78,145)   
    DRY( 78,146)   DRY( 78,147)   DRY( 78,148)   DRY( 78,149)   DRY( 78,150)   
    DRY( 78,151)   DRY( 78,152)   DRY( 78,153)   DRY( 78,154)   DRY( 78,155)   
    DRY( 78,156)   DRY( 78,157)   DRY( 78,158)   DRY( 78,159)   DRY( 78,160)   
    DRY( 78,161)   DRY( 78,162)   DRY( 78,163)   DRY( 78,164)   DRY( 78,165)   
    DRY( 78,166)   DRY( 78,167)   DRY( 78,168)   DRY( 78,169)   DRY( 78,170)   
    DRY( 78,171)   DRY( 78,172)   DRY( 78,173)   DRY( 78,174)   DRY( 78,175)   
    DRY( 78,176)   DRY( 78,177)   DRY( 78,178)   DRY( 78,179)   DRY( 78,180)   
    DRY( 78,181)   DRY( 78,182)   DRY( 78,183)   DRY( 78,184)   DRY( 78,185)   
    DRY( 78,186)   DRY( 78,187)   DRY( 78,188)   DRY( 78,189)   DRY( 78,190)   
    DRY( 78,191)   DRY( 78,192)   DRY( 78,193)   DRY( 78,194)   DRY( 78,195)   
    DRY( 78,196)   DRY( 78,197)   DRY( 78,198)   DRY( 78,199)   DRY( 78,200)   
    DRY( 78,201)   DRY( 78,202)   DRY( 78,203)   DRY( 78,204)   DRY( 78,205)   
    DRY( 78,206)   DRY( 78,207)   DRY( 78,208)   DRY( 78,209)   DRY( 78,210)   
    DRY( 78,211)   DRY( 78,212)   DRY( 78,213)   DRY( 78,214)   DRY( 78,215)   
    DRY( 78,216)   DRY( 78,217)   DRY( 78,218)   DRY( 78,219)   DRY( 78,220)   
    DRY( 79,  1)   DRY( 79, 18)   DRY( 79, 19)   DRY( 79, 20)   DRY( 79, 21)   
    DRY( 79, 22)   DRY( 79, 23)   DRY( 79, 24)   DRY( 79, 25)   DRY( 79, 26)   
    DRY( 79, 27)   DRY( 79, 28)   DRY( 79, 29)   DRY( 79, 30)   DRY( 79, 31)   
    DRY( 79, 32)   DRY( 79, 33)   DRY( 79, 34)   DRY( 79, 35)   DRY( 79, 36)   
    DRY( 79, 37)   DRY( 79, 38)   DRY( 79, 39)   DRY( 79, 40)   DRY( 79, 41)   
    DRY( 79, 42)   DRY( 79, 43)   DRY( 79, 52)   DRY( 79, 53)   DRY( 79, 54)   
    DRY( 79, 55)   DRY( 79, 56)   DRY( 79, 57)   DRY( 79, 58)   DRY( 79, 59)   
    DRY( 79, 60)   DRY( 79, 61)   DRY( 79, 62)   DRY( 79, 63)   DRY( 79, 64)   
    DRY( 79, 65)   DRY( 79, 66)   DRY( 79, 67)   DRY( 79, 68)   DRY( 79, 69)   
    DRY( 79, 70)   DRY( 79, 71)   DRY( 79, 72)   DRY( 79, 73)   DRY( 79, 74)   
    DRY( 79, 75)   DRY( 79, 76)   DRY( 79, 77)   DRY( 79, 78)   DRY( 79, 79)   
    DRY( 79, 80)   DRY( 79, 81)   DRY( 79, 82)   DRY( 79, 83)   DRY( 79, 84)   
    DRY( 79, 85)   DRY( 79, 86)   DRY( 79, 87)   DRY( 79, 88)   DRY( 79, 89)   
    DRY( 79, 90)   DRY( 79, 91)   DRY( 79, 92)   DRY( 79, 93)   DRY( 79, 94)   
    DRY( 79, 95)   DRY( 79, 96)   DRY( 79, 97)   DRY( 79, 98)   DRY( 79, 99)   
    DRY( 79,100)   DRY( 79,101)   DRY( 79,102)   DRY( 79,103)   DRY( 79,104)   
    DRY( 79,105)   DRY( 79,106)   DRY( 79,107)   DRY( 79,108)   DRY( 79,109)   
    DRY( 79,110)   DRY( 79,111)   DRY( 79,112)   DRY( 79,113)   DRY( 79,114)   
    DRY( 79,115)   DRY( 79,116)   DRY( 79,117)   DRY( 79,118)   DRY( 79,119)   
    DRY( 79,120)   DRY( 79,121)   DRY( 79,122)   DRY( 79,123)   DRY( 79,124)   
    DRY( 79,125)   DRY( 79,126)   DRY( 79,127)   DRY( 79,128)   DRY( 79,129)   
    DRY( 79,130)   DRY( 79,131)   DRY( 79,132)   DRY( 79,133)   DRY( 79,134)   
    DRY( 79,135)   DRY( 79,136)   DRY( 79,137)   DRY( 79,138)   DRY( 79,139)   
    DRY( 79,140)   DRY( 79,141)   DRY( 79,142)   DRY( 79,143)   DRY( 79,144)   
    DRY( 79,145)   DRY( 79,146)   DRY( 79,147)   DRY( 79,148)   DRY( 79,149)   
    DRY( 79,150)   DRY( 79,151)   DRY( 79,152)   DRY( 79,153)   DRY( 79,154)   
    DRY( 79,155)   DRY( 79,156)   DRY( 79,157)   DRY( 79,158)   DRY( 79,159)   
    DRY( 79,160)   DRY( 79,161)   DRY( 79,162)   DRY( 79,163)   DRY( 79,164)   
    DRY( 79,165)   DRY( 79,166)   DRY( 79,167)   DRY( 79,168)   DRY( 79,169)   
    DRY( 79,170)   DRY( 79,171)   DRY( 79,172)   DRY( 79,173)   DRY( 79,174)   
    DRY( 79,175)   DRY( 79,176)   DRY( 79,177)   DRY( 79,178)   DRY( 79,179)   
    DRY( 79,180)   DRY( 79,181)   DRY( 79,182)   DRY( 79,183)   DRY( 79,184)   
    DRY( 79,185)   DRY( 79,186)   DRY( 79,187)   DRY( 79,188)   DRY( 79,189)   
    DRY( 79,190)   DRY( 79,191)   DRY( 79,192)   DRY( 79,193)   DRY( 79,194)   
    DRY( 79,195)   DRY( 79,196)   DRY( 79,197)   DRY( 79,198)   DRY( 79,199)   
    DRY( 79,200)   DRY( 79,201)   DRY( 79,202)   DRY( 79,203)   DRY( 79,204)   
    DRY( 79,205)   DRY( 79,206)   DRY( 79,207)   DRY( 79,208)   DRY( 79,209)   
    DRY( 79,210)   DRY( 79,211)   DRY( 79,212)   DRY( 79,213)   DRY( 79,214)   
    DRY( 79,215)   DRY( 79,216)   DRY( 79,217)   DRY( 79,218)   DRY( 79,219)   
    DRY( 79,220)   DRY( 80,176)   DRY( 80,177)   DRY( 80,178)   DRY( 80,179)   
    DRY( 80,180)   DRY( 80,181)   DRY( 80,182)   DRY( 80,183)   DRY( 80,184)   
    DRY( 80,185)   DRY( 80,186)   DRY( 80,187)   DRY( 80,188)   DRY( 80,189)   
    DRY( 80,190)   DRY( 80,191)   DRY( 80,192)   DRY( 80,193)   DRY( 80,194)   
    DRY( 80,195)   DRY( 80,196)   DRY( 80,197)   DRY( 80,198)   DRY( 80,199)   
    DRY( 80,200)   DRY( 80,201)   DRY( 80,202)   DRY( 80,203)   DRY( 80,204)   
    DRY( 80,205)   DRY( 80,206)   DRY( 80,207)   DRY( 80,208)   DRY( 80,209)   
    DRY( 80,210)   DRY( 80,211)   DRY( 80,212)   DRY( 80,213)   DRY( 80,214)   
    DRY( 80,215)   DRY( 80,216)   DRY( 80,217)   DRY( 80,218)   DRY( 80,219)   
    DRY( 80,220)   

 CELL CONVERSIONS FOR ITER.=  5  LAYER= 28  STEP=  1  PERIOD=   1   (ROW,COL)
    DRY( 81,  1)   DRY( 81,  2)   DRY( 81,  3)   DRY( 81,  4)   DRY( 81,  5)   
    DRY( 81,  6)   DRY( 81,  7)   DRY( 81,  8)   DRY( 81,  9)   DRY( 81, 10)   
    DRY( 81, 11)   DRY( 81, 12)   DRY( 81, 13)   DRY( 81, 14)   DRY( 81, 15)   
    DRY( 81, 16)   DRY( 81, 17)   DRY( 81, 18)   DRY( 81, 19)   DRY( 81, 20)   
    DRY( 81, 21)   DRY( 81, 22)   DRY( 81, 23)   DRY( 81, 24)   DRY( 81, 25)   
    DRY( 81, 26)   DRY( 81, 27)   DRY( 81, 28)   DRY( 81, 29)   DRY( 81, 30)   
    DRY( 81, 31)   DRY( 81, 32)   DRY( 81, 33)   DRY( 81, 34)   DRY( 81, 35)   
    DRY( 81, 36)   DRY( 81, 37)   DRY( 81, 38)   DRY( 81, 39)   DRY( 81, 40)   
    DRY( 81, 41)   DRY( 81, 42)   DRY( 81, 43)   DRY( 81, 44)   DRY( 81, 45)   
    DRY( 81, 46)   DRY( 81, 47)   DRY( 81, 48)   DRY( 81, 49)   DRY( 81, 50)   
    DRY( 81, 51)   DRY( 81, 52)   DRY( 81, 53)   DRY( 81, 54)   DRY( 81, 55)   
    DRY( 81, 56)   DRY( 81, 57)   DRY( 81, 58)   DRY( 81, 59)   DRY( 81, 60)   
    DRY( 81, 61)   DRY( 81, 62)   DRY( 81, 63)   DRY( 81, 64)   DRY( 81, 65)   
    DRY( 81, 66)   DRY( 81, 67)   DRY( 81, 68)   DRY( 81, 69)   DRY( 81, 70)   
    DRY( 81, 71)   DRY( 81, 72)   DRY( 81, 73)   DRY( 81, 74)   DRY( 81, 75)   
    DRY( 81, 76)   DRY( 81, 77)   DRY( 81, 78)   DRY( 81, 79)   DRY( 81, 80)   
    DRY( 81, 81)   DRY( 81, 82)   DRY( 81, 83)   DRY( 81, 84)   DRY( 81, 85)   
    DRY( 81, 86)   DRY( 81, 87)   DRY( 81, 88)   DRY( 81, 89)   DRY( 81, 90)   
    DRY( 81, 91)   DRY( 81, 92)   DRY( 81, 93)   DRY( 81, 94)   DRY( 81, 95)   
    DRY( 81, 96)   DRY( 81, 97)   DRY( 81, 98)   DRY( 81, 99)   DRY( 81,100)   
    DRY( 81,101)   DRY( 81,102)   DRY( 81,103)   DRY( 81,104)   DRY( 81,105)   
    DRY( 81,106)   DRY( 81,107)   DRY( 81,108)   DRY( 81,109)   DRY( 81,110)   
    DRY( 81,111)   DRY( 81,112)   DRY( 81,113)   DRY( 81,114)   DRY( 81,115)   
    DRY( 81,116)   DRY( 81,117)   DRY( 81,118)   DRY( 81,119)   DRY( 81,120)   
    DRY( 81,121)   DRY( 81,122)   DRY( 81,123)   DRY( 81,124)   DRY( 81,125)   
    DRY( 81,126)   DRY( 81,127)   DRY( 81,128)   DRY( 81,129)   DRY( 81,130)   
    DRY( 81,131)   DRY( 81,132)   DRY( 81,133)   DRY( 81,134)   DRY( 81,135)   
    DRY( 81,136)   DRY( 81,137)   DRY( 81,138)   DRY( 81,139)   DRY( 81,140)   
    DRY( 81,141)   DRY( 81,142)   DRY( 81,143)   DRY( 81,144)   DRY( 81,145)   
    DRY( 81,146)   DRY( 81,147)   DRY( 81,148)   DRY( 81,149)   DRY( 81,150)   
    DRY( 81,151)   DRY( 81,152)   DRY( 81,153)   DRY( 81,154)   DRY( 81,155)   
    DRY( 81,156)   DRY( 81,157)   DRY( 81,158)   DRY( 81,159)   DRY( 81,160)   
    DRY( 81,161)   DRY( 81,162)   DRY( 81,163)   DRY( 81,164)   DRY( 81,165)   
    DRY( 81,166)   DRY( 81,167)   DRY( 81,168)   DRY( 81,169)   DRY( 81,170)   
    DRY( 81,171)   DRY( 81,172)   DRY( 81,173)   DRY( 81,174)   DRY( 81,175)   
    DRY( 81,176)   DRY( 81,177)   DRY( 81,178)   DRY( 81,179)   DRY( 81,180)   
    DRY( 81,181)   DRY( 81,182)   DRY( 81,183)   DRY( 81,184)   DRY( 81,185)   
    DRY( 81,186)   DRY( 81,187)   DRY( 81,188)   DRY( 81,189)   DRY( 81,190)   
    DRY( 81,191)   DRY( 81,192)   DRY( 81,193)   DRY( 81,194)   DRY( 81,195)   
    DRY( 81,196)   DRY( 81,197)   DRY( 81,198)   DRY( 81,199)   DRY( 81,200)   
    DRY( 81,201)   DRY( 81,202)   DRY( 81,203)   DRY( 81,204)   DRY( 81,205)   
    DRY( 81,206)   DRY( 81,207)   DRY( 81,208)   DRY( 81,209)   DRY( 81,210)   
    DRY( 81,211)   DRY( 81,212)   DRY( 81,213)   DRY( 81,214)   DRY( 81,215)   
    DRY( 81,216)   DRY( 81,217)   DRY( 82,  1)   DRY( 82,  2)   DRY( 82,  3)   
    DRY( 82,  4)   DRY( 82,  5)   DRY( 82,  6)   DRY( 82,  7)   DRY( 82,  8)   
    DRY( 82,  9)   DRY( 82, 10)   DRY( 82, 11)   DRY( 82, 12)   DRY( 82, 13)   
    DRY( 82, 14)   DRY( 82, 15)   DRY( 82, 16)   DRY( 82, 17)   DRY( 82, 18)   
    DRY( 82, 19)   DRY( 82, 20)   DRY( 82, 21)   DRY( 82, 22)   DRY( 82, 23)   
    DRY( 82, 24)   DRY( 82, 25)   DRY( 82, 26)   DRY( 82, 27)   DRY( 82, 28)   
    DRY( 82, 29)   DRY( 82, 30)   DRY( 82, 31)   DRY( 82, 32)   DRY( 82, 33)   
    DRY( 82, 34)   DRY( 82, 35)   DRY( 82, 36)   DRY( 82, 37)   DRY( 82, 38)   
    DRY( 82, 39)   DRY( 82, 40)   DRY( 82, 41)   DRY( 82, 42)   DRY( 82, 43)   
    DRY( 82, 44)   DRY( 82, 45)   DRY( 82, 46)   DRY( 82, 47)   DRY( 82, 48)   
    DRY( 82, 49)   DRY( 82, 50)   DRY( 82, 51)   DRY( 82, 52)   DRY( 82, 53)   
    DRY( 82, 54)   DRY( 82, 55)   DRY( 82, 56)   DRY( 82, 57)   DRY( 82, 58)   
    DRY( 82, 59)   DRY( 82, 60)   DRY( 82, 61)   DRY( 82, 62)   DRY( 82, 63)   
    DRY( 82, 64)   DRY( 82, 65)   DRY( 82, 66)   DRY( 82, 67)   DRY( 82, 68)   
    DRY( 82, 69)   DRY( 82, 70)   DRY( 82, 71)   DRY( 82, 72)   DRY( 82, 73)   
    DRY( 82, 74)   DRY( 82, 75)   DRY( 82, 76)   DRY( 82, 77)   DRY( 82, 78)   
    DRY( 82, 79)   DRY( 82, 80)   DRY( 82, 81)   DRY( 82, 82)   DRY( 82, 83)   
    DRY( 82, 84)   DRY( 82, 85)   DRY( 82, 86)   DRY( 82, 87)   DRY( 82, 88)   
    DRY( 82, 89)   DRY( 82, 90)   DRY( 82, 91)   DRY( 82, 92)   DRY( 82, 93)   
    DRY( 82, 94)   DRY( 82, 95)   DRY( 82, 96)   DRY( 82, 97)   DRY( 82, 98)   
    DRY( 82, 99)   DRY( 82,100)   DRY( 82,101)   DRY( 82,102)   DRY( 82,103)   
    DRY( 82,104)   DRY( 82,105)   DRY( 82,106)   DRY( 82,107)   DRY( 82,108)   
    DRY( 82,109)   DRY( 82,110)   DRY( 82,111)   DRY( 82,112)   DRY( 82,113)   
    DRY( 82,114)   DRY( 82,115)   DRY( 82,116)   DRY( 82,117)   DRY( 82,118)   
    DRY( 82,119)   DRY( 82,120)   DRY( 82,121)   DRY( 82,122)   DRY( 82,123)   
    DRY( 82,124)   DRY( 82,125)   DRY( 82,126)   DRY( 82,127)   DRY( 82,128)   
    DRY( 82,129)   DRY( 82,130)   DRY( 82,131)   DRY( 82,132)   DRY( 82,133)   
    DRY( 82,134)   DRY( 82,135)   DRY( 82,136)   DRY( 82,137)   DRY( 82,138)   
    DRY( 82,139)   DRY( 82,140)   DRY( 82,141)   DRY( 82,142)   DRY( 82,143)   
    DRY( 82,144)   DRY( 82,145)   DRY( 82,146)   DRY( 82,147)   DRY( 82,148)   
    DRY( 82,149)   DRY( 82,150)   DRY( 82,151)   DRY( 82,152)   DRY( 82,153)   
    DRY( 82,154)   DRY( 82,155)   DRY( 82,156)   DRY( 82,157)   DRY( 82,158)   
    DRY( 82,159)   DRY( 82,160)   DRY( 82,161)   DRY( 82,162)   DRY( 82,163)   
    DRY( 82,164)   DRY( 82,165)   DRY( 82,166)   DRY( 82,167)   DRY( 82,168)   
    DRY( 82,169)   DRY( 82,170)   DRY( 82,171)   DRY( 82,172)   DRY( 82,173)   
    DRY( 82,174)   DRY( 82,175)   DRY( 82,176)   DRY( 82,177)   DRY( 82,178)   
    DRY( 82,179)   DRY( 82,180)   DRY( 82,181)   DRY( 82,182)   DRY( 82,183)   
    DRY( 82,184)   DRY( 82,185)   DRY( 82,186)   DRY( 82,187)   DRY( 82,188)   
    DRY( 82,189)   DRY( 82,190)   DRY( 82,191)   DRY( 82,192)   DRY( 82,193)   
    DRY( 82,194)   DRY( 82,195)   DRY( 82,196)   DRY( 82,197)   DRY( 82,198)   
    DRY( 82,199)   DRY( 82,200)   DRY( 82,201)   DRY( 82,202)   DRY( 82,203)   
    DRY( 82,204)   DRY( 82,205)   DRY( 82,206)   DRY( 82,207)   DRY( 82,208)   
    DRY( 82,209)   DRY( 82,210)   DRY( 82,211)   DRY( 82,212)   DRY( 82,213)   
    DRY( 82,214)   DRY( 82,215)   DRY( 82,216)   DRY( 82,217)   DRY( 82,218)   
    DRY( 82,219)   DRY( 82,220)   DRY( 83,  1)   DRY( 83,  2)   DRY( 83,  3)   
    DRY( 83,  4)   DRY( 83,  5)   DRY( 83,  6)   DRY( 83,  7)   DRY( 83,  8)   
    DRY( 83,  9)   DRY( 83, 10)   DRY( 83, 11)   DRY( 83, 12)   DRY( 83, 13)   
    DRY( 83, 14)   DRY( 83, 15)   DRY( 83, 16)   DRY( 83, 17)   DRY( 83, 18)   
    DRY( 83, 19)   DRY( 83, 20)   DRY( 83, 21)   DRY( 83, 22)   DRY( 83, 23)   
    DRY( 83, 24)   DRY( 83, 25)   DRY( 83, 26)   DRY( 83, 27)   DRY( 83, 28)   
    DRY( 83, 29)   DRY( 83, 30)   DRY( 83, 31)   DRY( 83, 32)   DRY( 83, 33)   
    DRY( 83, 34)   DRY( 83, 35)   DRY( 83, 36)   DRY( 83, 37)   DRY( 83, 38)   
    DRY( 83, 39)   DRY( 83, 40)   DRY( 83, 41)   DRY( 83, 42)   DRY( 83, 43)   
    DRY( 83, 44)   DRY( 83, 45)   DRY( 83, 46)   DRY( 83, 47)   DRY( 83, 48)   
    DRY( 83, 49)   DRY( 83, 50)   DRY( 83, 51)   DRY( 83, 52)   DRY( 83, 53)   
    DRY( 83, 54)   DRY( 83, 55)   DRY( 83, 56)   DRY( 83, 57)   DRY( 83, 58)   
    DRY( 83, 59)   DRY( 83, 60)   DRY( 83, 61)   DRY( 83, 62)   DRY( 83, 63)   
    DRY( 83, 64)   DRY( 83, 65)   DRY( 83, 66)   DRY( 83, 67)   DRY( 83, 68)   
    DRY( 83, 69)   DRY( 83, 70)   DRY( 83, 71)   DRY( 83, 72)   DRY( 83, 73)   
    DRY( 83, 74)   DRY( 83, 75)   DRY( 83, 76)   DRY( 83, 77)   DRY( 83, 78)   
    DRY( 83, 79)   DRY( 83, 80)   DRY( 83, 81)   DRY( 83, 82)   DRY( 83, 83)   
    DRY( 83, 84)   DRY( 83, 85)   DRY( 83, 86)   DRY( 83, 87)   DRY( 83, 88)   
    DRY( 83, 89)   DRY( 83, 90)   DRY( 83, 91)   DRY( 83, 92)   DRY( 83, 93)   
    DRY( 83, 94)   DRY( 83, 95)   DRY( 83, 96)   DRY( 83, 97)   DRY( 83, 98)   
    DRY( 83, 99)   DRY( 83,100)   DRY( 83,101)   DRY( 83,102)   DRY( 83,103)   
    DRY( 83,104)   DRY( 83,105)   DRY( 83,106)   DRY( 83,107)   DRY( 83,108)   
    DRY( 83,109)   DRY( 83,110)   DRY( 83,111)   DRY( 83,112)   DRY( 83,113)   
    DRY( 83,114)   DRY( 83,115)   DRY( 83,116)   DRY( 83,117)   DRY( 83,118)   
    DRY( 83,119)   DRY( 83,120)   DRY( 83,121)   DRY( 83,122)   DRY( 83,123)   
    DRY( 83,124)   DRY( 83,125)   DRY( 83,126)   DRY( 83,127)   DRY( 83,128)   
    DRY( 83,129)   DRY( 83,130)   DRY( 83,131)   DRY( 83,132)   DRY( 83,133)   
    DRY( 83,134)   DRY( 83,135)   DRY( 83,136)   DRY( 83,137)   DRY( 83,138)   
    DRY( 83,139)   DRY( 83,140)   DRY( 83,141)   DRY( 83,142)   DRY( 83,143)   
    DRY( 83,144)   DRY( 83,145)   DRY( 83,146)   DRY( 83,147)   DRY( 83,148)   
    DRY( 83,149)   DRY( 83,150)   DRY( 83,151)   DRY( 83,152)   DRY( 83,153)   
    DRY( 83,154)   DRY( 83,155)   DRY( 83,156)   DRY( 83,157)   DRY( 83,158)   
    DRY( 83,159)   DRY( 83,160)   DRY( 83,161)   DRY( 83,162)   DRY( 83,163)   
    DRY( 83,164)   DRY( 83,165)   DRY( 83,166)   DRY( 83,167)   DRY( 83,168)   
    DRY( 83,169)   DRY( 83,170)   DRY( 83,171)   DRY( 83,172)   DRY( 83,173)   
    DRY( 83,174)   DRY( 83,175)   DRY( 83,176)   DRY( 83,177)   DRY( 83,178)   
    DRY( 83,179)   DRY( 83,180)   DRY( 83,181)   DRY( 83,182)   DRY( 83,183)   
    DRY( 83,184)   DRY( 83,185)   DRY( 83,186)   DRY( 83,187)   DRY( 83,188)   
    DRY( 83,189)   DRY( 83,190)   DRY( 83,191)   DRY( 83,192)   DRY( 83,193)   
    DRY( 83,194)   DRY( 83,195)   DRY( 83,196)   DRY( 83,197)   DRY( 83,198)   
    DRY( 83,199)   DRY( 83,200)   DRY( 83,201)   DRY( 83,202)   DRY( 83,203)   
    DRY( 83,204)   DRY( 83,205)   DRY( 83,206)   DRY( 83,207)   DRY( 83,208)   
    DRY( 83,209)   DRY( 83,210)   DRY( 83,211)   DRY( 83,212)   DRY( 83,213)   
    DRY( 83,214)   DRY( 83,215)   DRY( 83,216)   DRY( 83,217)   DRY( 83,218)   
    DRY( 83,219)   DRY( 83,220)   DRY( 84,  1)   DRY( 84,  2)   DRY( 84,  3)   
    DRY( 84,  4)   DRY( 84,  5)   DRY( 84,  6)   DRY( 84,  7)   DRY( 84,  8)   
    DRY( 84,  9)   DRY( 84, 10)   DRY( 84, 11)   DRY( 84, 12)   DRY( 84, 13)   
    DRY( 84, 14)   DRY( 84, 15)   DRY( 84, 16)   DRY( 84, 17)   DRY( 84, 18)   
    DRY( 84, 19)   DRY( 84, 20)   DRY( 84, 21)   DRY( 84, 22)   DRY( 84, 23)   
    DRY( 84, 24)   DRY( 84, 25)   DRY( 84, 26)   DRY( 84, 27)   DRY( 84, 28)   
    DRY( 84, 29)   DRY( 84, 30)   DRY( 84, 31)   DRY( 84, 32)   DRY( 84, 33)   
    DRY( 84, 34)   DRY( 84, 35)   DRY( 84, 36)   DRY( 84, 37)   DRY( 84, 38)   
    DRY( 84, 39)   DRY( 84, 40)   DRY( 84, 41)   DRY( 84, 42)   DRY( 84, 43)   
    DRY( 84, 44)   DRY( 84, 45)   DRY( 84, 46)   DRY( 84, 47)   DRY( 84, 48)   
    DRY( 84, 49)   DRY( 84, 50)   DRY( 84, 51)   DRY( 84, 52)   DRY( 84, 53)   
    DRY( 84, 54)   DRY( 84, 55)   DRY( 84, 56)   DRY( 84, 57)   DRY( 84, 58)   
    DRY( 84, 59)   DRY( 84, 60)   DRY( 84, 61)   DRY( 84, 62)   DRY( 84, 63)   
    DRY( 84, 64)   DRY( 84, 65)   DRY( 84, 66)   DRY( 84, 67)   DRY( 84, 68)   
    DRY( 84, 69)   DRY( 84, 70)   DRY( 84, 71)   DRY( 84, 72)   DRY( 84, 73)   
    DRY( 84, 74)   DRY( 84, 75)   DRY( 84, 76)   DRY( 84, 77)   DRY( 84, 78)   
    DRY( 84, 79)   DRY( 84, 80)   DRY( 84, 81)   DRY( 84, 82)   DRY( 84, 83)   
    DRY( 84, 84)   DRY( 84, 85)   DRY( 84, 86)   DRY( 84, 87)   DRY( 84, 88)   
    DRY( 84, 89)   DRY( 84, 90)   DRY( 84, 91)   DRY( 84, 92)   DRY( 84, 93)   
    DRY( 84, 94)   DRY( 84, 95)   DRY( 84, 96)   DRY( 84, 97)   DRY( 84, 98)   
    DRY( 84, 99)   DRY( 84,100)   DRY( 84,101)   DRY( 84,102)   DRY( 84,103)   
    DRY( 84,104)   DRY( 84,105)   DRY( 84,106)   DRY( 84,107)   DRY( 84,108)   
    DRY( 84,109)   DRY( 84,110)   DRY( 84,111)   DRY( 84,112)   DRY( 84,113)   
    DRY( 84,114)   DRY( 84,115)   DRY( 84,116)   DRY( 84,117)   DRY( 84,118)   
    DRY( 84,119)   DRY( 84,120)   DRY( 84,121)   DRY( 84,122)   DRY( 84,123)   
    DRY( 84,124)   DRY( 84,125)   DRY( 84,126)   DRY( 84,127)   DRY( 84,128)   
    DRY( 84,129)   DRY( 84,130)   DRY( 84,131)   DRY( 84,132)   DRY( 84,133)   
    DRY( 84,134)   DRY( 84,135)   DRY( 84,136)   DRY( 84,137)   DRY( 84,138)   
    DRY( 84,139)   DRY( 84,140)   DRY( 84,141)   DRY( 84,142)   DRY( 84,143)   
    DRY( 84,144)   DRY( 84,145)   DRY( 84,146)   DRY( 84,147)   DRY( 84,148)   
    DRY( 84,149)   DRY( 84,150)   DRY( 84,151)   DRY( 84,152)   DRY( 84,153)   
    DRY( 84,154)   DRY( 84,155)   DRY( 84,156)   DRY( 84,157)   DRY( 84,158)   
    DRY( 84,159)   DRY( 84,160)   DRY( 84,161)   DRY( 84,162)   DRY( 84,163)   
    DRY( 84,164)   DRY( 84,165)   DRY( 84,166)   DRY( 84,167)   DRY( 84,168)   
    DRY( 84,169)   DRY( 84,170)   DRY( 84,171)   DRY( 84,172)   DRY( 84,173)   
    DRY( 84,174)   DRY( 84,175)   DRY( 84,176)   DRY( 84,177)   DRY( 84,178)   
    DRY( 84,179)   DRY( 84,180)   DRY( 84,181)   DRY( 84,182)   DRY( 84,183)   
    DRY( 84,184)   DRY( 84,185)   DRY( 84,186)   DRY( 84,187)   DRY( 84,188)   
    DRY( 84,189)   DRY( 84,190)   DRY( 84,191)   DRY( 84,192)   DRY( 84,193)   
    DRY( 84,194)   DRY( 84,195)   DRY( 84,196)   DRY( 84,197)   DRY( 84,198)   
    DRY( 84,199)   DRY( 84,200)   DRY( 84,201)   DRY( 84,202)   DRY( 84,203)   
    DRY( 84,204)   DRY( 84,205)   DRY( 84,206)   DRY( 84,207)   DRY( 84,208)   
    DRY( 84,209)   DRY( 84,210)   DRY( 84,211)   DRY( 84,212)   DRY( 84,213)   
    DRY( 84,214)   DRY( 84,215)   DRY( 84,216)   DRY( 84,217)   DRY( 84,218)   
    DRY( 84,219)   DRY( 84,220)   DRY( 85,  1)   DRY( 85,  2)   DRY( 85,  3)   
    DRY( 85,  4)   DRY( 85,  5)   DRY( 85,  6)   DRY( 85,  7)   DRY( 85,  8)   
    DRY( 85,  9)   DRY( 85, 10)   DRY( 85, 11)   DRY( 85, 12)   DRY( 85, 13)   
    DRY( 85, 14)   DRY( 85, 15)   DRY( 85, 16)   DRY( 85, 17)   DRY( 85, 18)   
    DRY( 85, 19)   DRY( 85, 20)   DRY( 85, 21)   DRY( 85, 22)   DRY( 85, 23)   
    DRY( 85, 24)   DRY( 85, 25)   DRY( 85, 26)   DRY( 85, 27)   DRY( 85, 28)   
    DRY( 85, 29)   DRY( 85, 30)   DRY( 85, 31)   DRY( 85, 32)   DRY( 85, 33)   
    DRY( 85, 34)   DRY( 85, 35)   DRY( 85, 36)   DRY( 85, 37)   DRY( 85, 38)   
    DRY( 85, 39)   DRY( 85, 40)   DRY( 85, 41)   DRY( 85, 42)   DRY( 85, 43)   
    DRY( 85, 44)   DRY( 85, 45)   DRY( 85, 46)   DRY( 85, 47)   DRY( 85, 48)   
    DRY( 85, 49)   DRY( 85, 50)   DRY( 85, 51)   DRY( 85, 52)   DRY( 85, 53)   
    DRY( 85, 54)   DRY( 85, 55)   DRY( 85, 56)   DRY( 85, 57)   DRY( 85, 58)   
    DRY( 85, 59)   DRY( 85, 60)   DRY( 85, 61)   DRY( 85, 62)   DRY( 85, 63)   
    DRY( 85, 64)   DRY( 85, 65)   DRY( 85, 66)   DRY( 85, 67)   DRY( 85, 68)   
    DRY( 85, 69)   DRY( 85, 70)   DRY( 85, 71)   DRY( 85, 72)   DRY( 85, 73)   
    DRY( 85, 74)   DRY( 85, 75)   DRY( 85, 76)   DRY( 85, 77)   DRY( 85, 78)   
    DRY( 85, 79)   DRY( 85, 80)   DRY( 85, 81)   DRY( 85, 82)   DRY( 85, 83)   
    DRY( 85, 84)   DRY( 85, 85)   DRY( 85, 86)   DRY( 85, 87)   DRY( 85, 88)   
    DRY( 85, 89)   DRY( 85, 90)   DRY( 85, 91)   DRY( 85, 92)   DRY( 85, 93)   
    DRY( 85, 94)   DRY( 85, 95)   DRY( 85, 96)   DRY( 85, 97)   DRY( 85, 98)   
    DRY( 85, 99)   DRY( 85,100)   DRY( 85,101)   DRY( 85,102)   DRY( 85,103)   
    DRY( 85,104)   DRY( 85,105)   DRY( 85,106)   DRY( 85,107)   DRY( 85,108)   
    DRY( 85,109)   DRY( 85,110)   DRY( 85,111)   DRY( 85,112)   DRY( 85,113)   
    DRY( 85,114)   DRY( 85,115)   DRY( 85,116)   DRY( 85,117)   DRY( 85,118)   
    DRY( 85,119)   DRY( 85,120)   DRY( 85,121)   DRY( 85,122)   DRY( 85,123)   
    DRY( 85,124)   DRY( 85,125)   DRY( 85,126)   DRY( 85,127)   DRY( 85,128)   
    DRY( 85,129)   DRY( 85,130)   DRY( 85,131)   DRY( 85,132)   DRY( 85,133)   
    DRY( 85,134)   DRY( 85,135)   DRY( 85,136)   DRY( 85,137)   DRY( 85,138)   
    DRY( 85,139)   DRY( 85,140)   DRY( 85,141)   DRY( 85,142)   DRY( 85,143)   
    DRY( 85,144)   DRY( 85,145)   DRY( 85,146)   DRY( 85,147)   DRY( 85,148)   
    DRY( 85,149)   DRY( 85,150)   DRY( 85,151)   DRY( 85,152)   DRY( 85,153)   
    DRY( 85,154)   DRY( 85,155)   DRY( 85,156)   DRY( 85,157)   DRY( 85,158)   
    DRY( 85,159)   DRY( 85,160)   DRY( 85,161)   DRY( 85,162)   DRY( 85,163)   
    DRY( 85,164)   DRY( 85,165)   DRY( 85,166)   DRY( 85,167)   DRY( 85,168)   
    DRY( 85,169)   DRY( 85,170)   DRY( 85,171)   DRY( 85,172)   DRY( 85,173)   
    DRY( 85,174)   DRY( 85,175)   DRY( 85,176)   DRY( 85,177)   DRY( 85,178)   
    DRY( 85,179)   DRY( 85,180)   DRY( 85,181)   DRY( 85,182)   DRY( 85,183)   
    DRY( 85,184)   DRY( 85,185)   DRY( 85,186)   DRY( 85,187)   DRY( 85,188)   
    DRY( 85,189)   DRY( 85,190)   DRY( 85,191)   DRY( 85,192)   DRY( 85,193)   
    DRY( 85,194)   DRY( 85,195)   DRY( 85,196)   DRY( 85,197)   DRY( 85,198)   
    DRY( 85,199)   DRY( 85,200)   DRY( 85,201)   DRY( 85,202)   DRY( 85,203)   
    DRY( 85,204)   DRY( 85,205)   DRY( 85,206)   DRY( 85,207)   DRY( 85,208)   
    DRY( 85,209)   DRY( 85,210)   DRY( 85,211)   DRY( 85,212)   DRY( 85,213)   
    DRY( 85,214)   DRY( 85,215)   DRY( 85,216)   DRY( 85,217)   DRY( 85,218)   
    DRY( 85,219)   DRY( 85,220)   DRY( 86, 90)   DRY( 86, 91)   DRY( 86, 92)   
    DRY( 86, 93)   DRY( 86, 94)   DRY( 86, 95)   DRY( 86, 96)   DRY( 86, 97)   
    DRY( 86, 98)   DRY( 86, 99)   DRY( 86,100)   DRY( 86,101)   DRY( 86,102)   
    DRY( 86,103)   DRY( 86,104)   DRY( 86,105)   DRY( 86,106)   DRY( 86,107)   
    DRY( 86,108)   DRY( 86,109)   DRY( 86,110)   DRY( 86,111)   DRY( 86,112)   
    DRY( 86,113)   DRY( 86,114)   DRY( 86,115)   DRY( 86,116)   DRY( 86,117)   
    DRY( 86,118)   DRY( 86,119)   DRY( 86,120)   DRY( 86,121)   DRY( 86,122)   
    DRY( 86,123)   DRY( 86,124)   DRY( 86,125)   DRY( 86,126)   DRY( 86,127)   
    DRY( 86,128)   DRY( 86,129)   DRY( 86,130)   DRY( 86,131)   DRY( 86,132)   
    DRY( 86,133)   DRY( 86,134)   DRY( 86,135)   DRY( 86,136)   DRY( 86,137)   
    DRY( 86,138)   DRY( 86,139)   DRY( 86,140)   DRY( 86,141)   DRY( 86,142)   
    DRY( 86,143)   DRY( 86,144)   DRY( 86,145)   DRY( 86,146)   DRY( 86,147)   
    DRY( 86,148)   DRY( 86,149)   DRY( 86,150)   DRY( 86,151)   DRY( 86,152)   
    DRY( 86,153)   DRY( 86,154)   DRY( 86,155)   DRY( 86,156)   DRY( 86,157)   
    DRY( 86,158)   DRY( 86,159)   DRY( 86,160)   DRY( 86,161)   DRY( 86,162)   
    DRY( 86,163)   DRY( 86,164)   DRY( 86,165)   DRY( 86,166)   DRY( 86,167)   
    DRY( 86,168)   DRY( 86,169)   DRY( 86,170)   DRY( 86,171)   DRY( 86,172)   
    DRY( 86,173)   DRY( 86,174)   DRY( 86,175)   DRY( 86,176)   DRY( 86,177)   
    DRY( 86,178)   DRY( 86,179)   DRY( 86,180)   DRY( 86,181)   DRY( 86,182)   
    DRY( 86,183)   DRY( 86,184)   DRY( 86,185)   DRY( 86,186)   DRY( 86,187)   
    DRY( 86,188)   DRY( 86,189)   DRY( 86,190)   DRY( 86,191)   DRY( 86,192)   
    DRY( 86,193)   DRY( 86,194)   DRY( 86,195)   DRY( 86,196)   DRY( 86,197)   
    DRY( 86,198)   DRY( 86,199)   DRY( 86,200)   DRY( 86,201)   DRY( 86,202)   
    DRY( 86,203)   DRY( 86,204)   DRY( 86,205)   DRY( 86,206)   DRY( 86,207)   
    DRY( 86,208)   DRY( 86,209)   DRY( 86,210)   DRY( 86,211)   DRY( 86,212)   
    DRY( 86,213)   DRY( 86,214)   DRY( 86,215)   DRY( 86,216)   DRY( 86,217)   
    DRY( 86,218)   DRY( 86,219)   DRY( 86,220)   

 CELL CONVERSIONS FOR ITER.=  5  LAYER= 29  STEP=  1  PERIOD=   1   (ROW,COL)
    DRY( 88,  1)   DRY( 88,  2)   DRY( 88,  3)   DRY( 88,  4)   DRY( 88,  5)   
    DRY( 88,  6)   DRY( 88,  7)   DRY( 88,  8)   DRY( 88,  9)   DRY( 88, 10)   
    DRY( 88, 11)   DRY( 88, 12)   DRY( 88, 13)   DRY( 88, 14)   DRY( 88, 15)   
    DRY( 88, 16)   DRY( 88, 17)   DRY( 88, 18)   DRY( 88, 19)   DRY( 88, 20)   
    DRY( 88, 21)   DRY( 88, 22)   DRY( 88, 23)   DRY( 88, 24)   DRY( 88, 25)   
    DRY( 88, 26)   DRY( 88, 27)   DRY( 88, 28)   DRY( 88, 29)   DRY( 88, 30)   
    DRY( 88, 31)   DRY( 88, 32)   DRY( 88, 33)   DRY( 88, 34)   DRY( 88, 35)   
    DRY( 88, 36)   DRY( 88, 37)   DRY( 88, 38)   DRY( 88, 39)   DRY( 88, 40)   
    DRY( 88, 41)   DRY( 88, 42)   DRY( 88, 43)   DRY( 88, 44)   DRY( 88, 45)   
    DRY( 88, 46)   DRY( 88, 47)   DRY( 88, 48)   DRY( 88, 49)   DRY( 88, 50)   
    DRY( 88, 51)   DRY( 88, 52)   DRY( 88, 53)   DRY( 88, 54)   DRY( 88, 55)   
    DRY( 88, 56)   DRY( 88, 57)   DRY( 88, 58)   DRY( 88, 59)   DRY( 88, 60)   
    DRY( 88, 61)   DRY( 88, 62)   DRY( 88, 63)   DRY( 88, 64)   DRY( 88, 65)   
    DRY( 88, 66)   DRY( 88, 67)   DRY( 88, 68)   DRY( 88, 69)   DRY( 88, 70)   
    DRY( 88, 71)   DRY( 88, 72)   DRY( 88, 73)   DRY( 88, 74)   DRY( 88, 75)   
    DRY( 88, 76)   DRY( 88, 77)   DRY( 88, 78)   DRY( 88, 79)   DRY( 88, 80)   
    DRY( 88, 81)   DRY( 88, 82)   DRY( 88, 83)   DRY( 88, 84)   DRY( 88, 85)   
    DRY( 88, 86)   DRY( 88, 87)   DRY( 88, 88)   DRY( 88, 89)   DRY( 88, 90)   
    DRY( 88, 91)   DRY( 88, 92)   DRY( 88, 93)   DRY( 88, 94)   DRY( 88, 95)   
    DRY( 88, 96)   DRY( 88, 97)   DRY( 88, 98)   DRY( 88, 99)   DRY( 88,100)   
    DRY( 88,101)   DRY( 88,102)   DRY( 88,103)   DRY( 88,104)   DRY( 88,105)   
    DRY( 88,106)   DRY( 88,107)   DRY( 88,108)   DRY( 88,109)   DRY( 88,110)   
    DRY( 88,111)   DRY( 88,112)   DRY( 88,113)   DRY( 88,114)   DRY( 88,115)   
    DRY( 88,116)   DRY( 88,117)   DRY( 88,118)   DRY( 88,119)   DRY( 88,120)   
    DRY( 88,121)   DRY( 88,122)   DRY( 88,123)   DRY( 88,124)   DRY( 88,125)   
    DRY( 88,126)   DRY( 88,127)   DRY( 88,128)   DRY( 88,129)   DRY( 88,130)   
    DRY( 88,131)   DRY( 88,132)   DRY( 88,133)   DRY( 88,134)   DRY( 88,135)   
    DRY( 88,136)   DRY( 88,137)   DRY( 88,138)   DRY( 88,139)   DRY( 88,140)   
    DRY( 88,141)   DRY( 88,142)   DRY( 88,143)   DRY( 88,144)   DRY( 88,145)   
    DRY( 88,146)   DRY( 88,147)   DRY( 88,148)   DRY( 88,149)   DRY( 88,150)   
    DRY( 88,151)   DRY( 88,152)   DRY( 88,153)   DRY( 88,154)   DRY( 88,155)   
    DRY( 88,156)   DRY( 88,157)   DRY( 88,158)   DRY( 88,159)   DRY( 88,160)   
    DRY( 88,161)   DRY( 88,162)   DRY( 88,163)   DRY( 88,164)   DRY( 88,165)   
    DRY( 88,166)   DRY( 88,167)   DRY( 88,168)   DRY( 88,169)   DRY( 88,170)   
    DRY( 88,171)   DRY( 88,172)   DRY( 88,173)   DRY( 88,174)   DRY( 88,175)   
    DRY( 88,176)   DRY( 88,177)   DRY( 88,178)   DRY( 88,179)   DRY( 88,180)   
    DRY( 88,181)   DRY( 88,182)   DRY( 88,183)   DRY( 88,184)   DRY( 88,185)   
    DRY( 88,186)   DRY( 88,187)   DRY( 88,188)   DRY( 88,189)   DRY( 88,190)   
    DRY( 88,191)   DRY( 88,192)   DRY( 88,193)   DRY( 88,194)   DRY( 88,195)   
    DRY( 88,196)   DRY( 88,197)   DRY( 88,198)   DRY( 88,199)   DRY( 88,200)   
    DRY( 88,201)   DRY( 88,202)   DRY( 88,203)   DRY( 88,204)   DRY( 88,205)   
    DRY( 88,206)   DRY( 88,207)   DRY( 88,208)   DRY( 88,209)   DRY( 88,210)   
    DRY( 88,211)   DRY( 88,212)   DRY( 88,213)   DRY( 88,214)   DRY( 88,215)   
    DRY( 88,216)   DRY( 88,217)   DRY( 88,218)   DRY( 88,219)   DRY( 88,220)   
    DRY( 89,  1)   DRY( 89,  2)   DRY( 89,  3)   DRY( 89,  4)   DRY( 89,  5)   
    DRY( 89,  6)   DRY( 89,  7)   DRY( 89,  8)   DRY( 89,  9)   DRY( 89, 10)   
    DRY( 89, 11)   DRY( 89, 12)   DRY( 89, 13)   DRY( 89, 14)   DRY( 89, 15)   
    DRY( 89, 16)   DRY( 89, 17)   DRY( 89, 18)   DRY( 89, 19)   DRY( 89, 20)   
    DRY( 89, 21)   DRY( 89, 22)   DRY( 89, 23)   DRY( 89, 24)   DRY( 89, 25)   
    DRY( 89, 26)   DRY( 89, 27)   DRY( 89, 28)   DRY( 89, 29)   DRY( 89, 30)   
    DRY( 89, 31)   DRY( 89, 32)   DRY( 89, 33)   DRY( 89, 34)   DRY( 89, 35)   
    DRY( 89, 36)   DRY( 89, 37)   DRY( 89, 38)   DRY( 89, 39)   DRY( 89, 40)   
    DRY( 89, 41)   DRY( 89, 42)   DRY( 89, 43)   DRY( 89, 44)   DRY( 89, 45)   
    DRY( 89, 46)   DRY( 89, 47)   DRY( 89, 48)   DRY( 89, 49)   DRY( 89, 50)   
    DRY( 89, 51)   DRY( 89, 52)   DRY( 89, 53)   DRY( 89, 54)   DRY( 89, 55)   
    DRY( 89, 56)   DRY( 89, 57)   DRY( 89, 58)   DRY( 89, 59)   DRY( 89, 60)   
    DRY( 89, 61)   DRY( 89, 62)   DRY( 89, 63)   DRY( 89, 64)   DRY( 89, 65)   
    DRY( 89, 66)   DRY( 89, 67)   DRY( 89, 68)   DRY( 89, 69)   DRY( 89, 70)   
    DRY( 89, 71)   DRY( 89, 72)   DRY( 89, 73)   DRY( 89, 74)   DRY( 89, 75)   
    DRY( 89, 76)   DRY( 89, 77)   DRY( 89, 78)   DRY( 89, 79)   DRY( 89, 80)   
    DRY( 89, 81)   DRY( 89, 82)   DRY( 89, 83)   DRY( 89, 84)   DRY( 89, 85)   
    DRY( 89, 86)   DRY( 89, 87)   DRY( 89, 88)   DRY( 89, 89)   DRY( 89, 90)   
    DRY( 89, 91)   DRY( 89, 92)   DRY( 89, 93)   DRY( 89, 94)   DRY( 89, 95)   
    DRY( 89, 96)   DRY( 89, 97)   DRY( 89, 98)   DRY( 89, 99)   DRY( 89,100)   
    DRY( 89,101)   DRY( 89,102)   DRY( 89,103)   DRY( 89,104)   DRY( 89,105)   
    DRY( 89,106)   DRY( 89,107)   DRY( 89,108)   DRY( 89,109)   DRY( 89,110)   
    DRY( 89,111)   DRY( 89,112)   DRY( 89,113)   DRY( 89,114)   DRY( 89,115)   
    DRY( 89,116)   DRY( 89,117)   DRY( 89,118)   DRY( 89,119)   DRY( 89,120)   
    DRY( 89,121)   DRY( 89,122)   DRY( 89,123)   DRY( 89,124)   DRY( 89,125)   
    DRY( 89,126)   DRY( 89,127)   DRY( 89,128)   DRY( 89,129)   DRY( 89,130)   
    DRY( 89,131)   DRY( 89,132)   DRY( 89,133)   DRY( 89,134)   DRY( 89,135)   
    DRY( 89,136)   DRY( 89,137)   DRY( 89,138)   DRY( 89,139)   DRY( 89,140)   
    DRY( 89,141)   DRY( 89,142)   DRY( 89,143)   DRY( 89,144)   DRY( 89,145)   
    DRY( 89,146)   DRY( 89,147)   DRY( 89,148)   DRY( 89,149)   DRY( 89,150)   
    DRY( 89,151)   DRY( 89,152)   DRY( 89,153)   DRY( 89,154)   DRY( 89,155)   
    DRY( 89,156)   DRY( 89,157)   DRY( 89,158)   DRY( 89,159)   DRY( 89,160)   
    DRY( 89,161)   DRY( 89,162)   DRY( 89,163)   DRY( 89,164)   DRY( 89,165)   
    DRY( 89,166)   DRY( 89,167)   DRY( 89,168)   DRY( 89,169)   DRY( 89,170)   
    DRY( 89,171)   DRY( 89,172)   DRY( 89,173)   DRY( 89,174)   DRY( 89,175)   
    DRY( 89,176)   DRY( 89,177)   DRY( 89,178)   DRY( 89,179)   DRY( 89,180)   
    DRY( 89,181)   DRY( 89,182)   DRY( 89,183)   DRY( 89,184)   DRY( 89,185)   
    DRY( 89,186)   DRY( 89,187)   DRY( 89,188)   DRY( 89,189)   DRY( 89,190)   
    DRY( 89,191)   DRY( 89,192)   DRY( 89,193)   DRY( 89,194)   DRY( 89,195)   
    DRY( 89,196)   DRY( 89,197)   DRY( 89,198)   DRY( 89,199)   DRY( 89,200)   
    DRY( 89,201)   DRY( 89,202)   DRY( 89,203)   DRY( 89,204)   DRY( 89,205)   
    DRY( 89,206)   DRY( 89,207)   DRY( 89,208)   DRY( 89,209)   DRY( 89,210)   
    DRY( 89,211)   DRY( 89,212)   DRY( 89,213)   DRY( 89,214)   DRY( 89,215)   
    DRY( 89,216)   DRY( 89,217)   DRY( 89,218)   DRY( 89,219)   DRY( 89,220)   
    DRY( 90,  1)   DRY( 90,  2)   DRY( 90,  3)   DRY( 90,  4)   DRY( 90,  5)   
    DRY( 90,  6)   DRY( 90,  7)   DRY( 90,  8)   DRY( 90,  9)   DRY( 90, 10)   
    DRY( 90, 11)   DRY( 90, 12)   DRY( 90, 13)   DRY( 90, 14)   DRY( 90, 15)   
    DRY( 90, 16)   DRY( 90, 17)   DRY( 90, 18)   DRY( 90, 19)   DRY( 90, 20)   
    DRY( 90, 21)   DRY( 90, 22)   DRY( 90, 23)   DRY( 90, 24)   DRY( 90, 25)   
    DRY( 90, 26)   DRY( 90, 27)   DRY( 90, 28)   DRY( 90, 29)   DRY( 90, 30)   
    DRY( 90, 31)   DRY( 90, 32)   DRY( 90, 33)   DRY( 90, 34)   DRY( 90, 35)   
    DRY( 90, 36)   DRY( 90, 37)   DRY( 90, 38)   DRY( 90, 39)   DRY( 90, 40)   
    DRY( 90, 41)   DRY( 90, 42)   DRY( 90, 43)   DRY( 90, 44)   DRY( 90, 45)   
    DRY( 90, 46)   DRY( 90, 47)   DRY( 90, 48)   DRY( 90, 49)   DRY( 90, 50)   
    DRY( 90, 51)   DRY( 90, 52)   DRY( 90, 53)   DRY( 90, 54)   DRY( 90, 55)   
    DRY( 90, 56)   DRY( 90, 57)   DRY( 90, 58)   DRY( 90, 59)   DRY( 90, 60)   
    DRY( 90, 61)   DRY( 90, 62)   DRY( 90, 63)   DRY( 90, 64)   DRY( 90, 65)   
    DRY( 90, 66)   DRY( 90, 67)   DRY( 90, 68)   DRY( 90, 69)   DRY( 90, 70)   
    DRY( 90, 71)   DRY( 90, 72)   DRY( 90, 73)   DRY( 90, 74)   DRY( 90, 75)   
    DRY( 90, 76)   DRY( 90, 77)   DRY( 90, 78)   DRY( 90, 79)   DRY( 90, 80)   
    DRY( 90, 81)   DRY( 90, 82)   DRY( 90, 83)   DRY( 90, 84)   DRY( 90, 85)   
    DRY( 90, 86)   DRY( 90, 87)   DRY( 90, 88)   DRY( 90, 89)   DRY( 90, 90)   
    DRY( 90, 91)   DRY( 90, 92)   DRY( 90, 93)   DRY( 90, 94)   DRY( 90, 95)   
    DRY( 90, 96)   DRY( 90, 97)   DRY( 90, 98)   DRY( 90, 99)   DRY( 90,100)   
    DRY( 90,101)   DRY( 90,102)   DRY( 90,103)   DRY( 90,104)   DRY( 90,105)   
    DRY( 90,106)   DRY( 90,107)   DRY( 90,108)   DRY( 90,109)   DRY( 90,110)   
    DRY( 90,111)   DRY( 90,112)   DRY( 90,113)   DRY( 90,114)   DRY( 90,115)   
    DRY( 90,116)   DRY( 90,117)   DRY( 90,118)   DRY( 90,119)   DRY( 90,120)   
    DRY( 90,121)   DRY( 90,122)   DRY( 90,123)   DRY( 90,124)   DRY( 90,125)   
    DRY( 90,126)   DRY( 90,127)   DRY( 90,128)   DRY( 90,129)   DRY( 90,130)   
    DRY( 90,131)   DRY( 90,132)   DRY( 90,133)   DRY( 90,134)   DRY( 90,135)   
    DRY( 90,136)   DRY( 90,137)   DRY( 90,138)   DRY( 90,139)   DRY( 90,140)   
    DRY( 90,141)   DRY( 90,142)   DRY( 90,143)   DRY( 90,144)   DRY( 90,145)   
    DRY( 90,146)   DRY( 90,147)   DRY( 90,148)   DRY( 90,149)   DRY( 90,150)   
    DRY( 90,151)   DRY( 90,152)   DRY( 90,153)   DRY( 90,154)   DRY( 90,155)   
    DRY( 90,156)   DRY( 90,157)   DRY( 90,158)   DRY( 90,159)   DRY( 90,160)   
    DRY( 90,161)   DRY( 90,162)   DRY( 90,163)   DRY( 90,164)   DRY( 90,165)   
    DRY( 90,166)   DRY( 90,167)   DRY( 90,168)   DRY( 90,169)   DRY( 90,170)   
    DRY( 90,171)   DRY( 90,172)   DRY( 90,173)   DRY( 90,174)   DRY( 90,175)   
    DRY( 90,176)   DRY( 90,177)   DRY( 90,178)   DRY( 90,179)   DRY( 90,180)   
    DRY( 90,181)   DRY( 90,182)   DRY( 90,183)   DRY( 90,184)   DRY( 90,185)   
    DRY( 90,186)   DRY( 90,187)   DRY( 90,188)   DRY( 90,189)   DRY( 90,190)   
    DRY( 90,191)   DRY( 90,192)   DRY( 90,193)   DRY( 90,194)   DRY( 90,195)   
    DRY( 90,196)   DRY( 90,197)   DRY( 90,198)   DRY( 90,199)   DRY( 90,200)   
    DRY( 90,201)   DRY( 90,202)   DRY( 90,203)   DRY( 90,204)   DRY( 90,205)   
    DRY( 90,206)   DRY( 90,207)   DRY( 90,208)   DRY( 90,209)   DRY( 90,210)   
    DRY( 90,211)   DRY( 90,212)   DRY( 90,213)   DRY( 90,214)   DRY( 90,215)   
    DRY( 90,216)   DRY( 90,217)   DRY( 90,218)   DRY( 90,219)   DRY( 90,220)   

 OUTPUT CONTROL FOR STRESS PERIOD    1   TIME STEP    1
    SAVE HEAD FOR ALL LAYERS

 HEAD WILL BE SAVED ON UNIT   51 AT END OF TIME STEP    1, STRESS PERIOD    1
1
  VOLUMETRIC BUDGET FOR ENTIRE MODEL AT END OF TIME STEP    1, STRESS PERIOD   1
  ------------------------------------------------------------------------------

     CUMULATIVE VOLUMES      L**3       RATES FOR THIS TIME STEP      L**3/T
     ------------------                 ------------------------

           IN:                                      IN:
           ---                                      ---
             STORAGE =           0.0000               STORAGE =           0.0000
       CONSTANT HEAD =       25811.2500         CONSTANT HEAD =         860.3750
               WELLS =           0.0000                 WELLS =           0.0000

            TOTAL IN =       25811.2500              TOTAL IN =         860.3750

          OUT:                                     OUT:
          ----                                     ----
             STORAGE =           0.0000               STORAGE =           0.0000
       CONSTANT HEAD =       25811.2520         CONSTANT HEAD =         860.3751
               WELLS =           0.0000                 WELLS =           0.0000

           TOTAL OUT =       25811.2520             TOTAL OUT =         860.3751

            IN - OUT =      -1.9531E-03              IN - OUT =      -6.1035E-05

 PERCENT DISCREPANCY =          -0.00     PERCENT DISCREPANCY =          -0.00






         TIME SUMMARY AT END OF TIME STEP    1 IN STRESS PERIOD    1
                    SECONDS     MINUTES      HOURS       DAYS        YEARS
                    -----------------------------------------------------------
   TIME STEP LENGTH 2.59200E+06  43200.      720.00      30.000     8.21355E-02
 STRESS PERIOD TIME 2.59200E+06  43200.      720.00      30.000     8.21355E-02
         TOTAL TIME 2.59200E+06  43200.      720.00      30.000     8.21355E-02
1
1
                            STRESS PERIOD NO.    2, LENGTH =   30.00000    
                            -----------------------------------------------

                              NUMBER OF TIME STEPS =     1

                               MULTIPLIER FOR DELT =     1.000

                            INITIAL TIME STEP SIZE =   30.00000    

 WELL NO.  LAYER   ROW   COL   STRESS RATE         
 --------------------------------------------------
      1     31     76     21       654.0    

      1 WELL 
 
 SOLVING FOR HEAD 

 OUTPUT CONTROL FOR STRESS PERIOD    2   TIME STEP    1
    SAVE HEAD FOR ALL LAYERS

 HEAD WILL BE SAVED ON UNIT   51 AT END OF TIME STEP    1, STRESS PERIOD    2
1
  VOLUMETRIC BUDGET FOR ENTIRE MODEL AT END OF TIME STEP    1, STRESS PERIOD   2
  ------------------------------------------------------------------------------

     CUMULATIVE VOLUMES      L**3       RATES FOR THIS TIME STEP      L**3/T
     ------------------                 ------------------------

           IN:                                      IN:
           ---                                      ---
             STORAGE =       4.3821E-02               STORAGE =       1.4607E-03
       CONSTANT HEAD =       51571.9766         CONSTANT HEAD =         858.6910
               WELLS =       19620.0000                 WELLS =         654.0000

            TOTAL IN =       71192.0156              TOTAL IN =        1512.6924

          OUT:                                     OUT:
          ----                                     ----
             STORAGE =       18728.7852               STORAGE =         624.2928
       CONSTANT HEAD =       52463.2188         CONSTANT HEAD =         888.3989
               WELLS =           0.0000                 WELLS =           0.0000

           TOTAL OUT =       71192.0000             TOTAL OUT =        1512.6918

            IN - OUT =       1.5625E-02              IN - OUT =       6.1035E-04

 PERCENT DISCREPANCY =           0.00     PERCENT DISCREPANCY =           0.00






         TIME SUMMARY AT END OF TIME STEP    1 IN STRESS PERIOD    2
                    SECONDS     MINUTES      HOURS       DAYS        YEARS
                    -----------------------------------------------------------
   TIME STEP LENGTH 2.59200E+06  43200.      720.00      30.000     8.21355E-02
 STRESS PERIOD TIME 2.59200E+06  43200.      720.00      30.000     8.21355E-02
         TOTAL TIME 5.18400E+06  86400.      1440.0      60.000     0.16427    
1
1
                            STRESS PERIOD NO.    3, LENGTH =   30.00000    
                            -----------------------------------------------

                              NUMBER OF TIME STEPS =     1

                               MULTIPLIER FOR DELT =     1.000

                            INITIAL TIME STEP SIZE =   30.00000    

 WELL NO.  LAYER   ROW   COL   STRESS RATE         
 --------------------------------------------------
      1     31     76     21       654.0    

      1 WELL 
 
 SOLVING FOR HEAD 

 OUTPUT CONTROL FOR STRESS PERIOD    3   TIME STEP    1
    SAVE HEAD FOR ALL LAYERS

 HEAD WILL BE SAVED ON UNIT   51 AT END OF TIME STEP    1, STRESS PERIOD    3
1
  VOLUMETRIC BUDGET FOR ENTIRE MODEL AT END OF TIME STEP    1, STRESS PERIOD   3
  ------------------------------------------------------------------------------

     CUMULATIVE VOLUMES      L**3       RATES FOR THIS TIME STEP      L**3/T
     ------------------                 ------------------------

           IN:                                      IN:
           ---                                      ---
             STORAGE =       4.5280E-02               STORAGE =       4.8633E-05
       CONSTANT HEAD =       76016.5938         CONSTANT HEAD =         814.8207
               WELLS =       39240.0000                 WELLS =         654.0000

            TOTAL IN =      115256.6406              TOTAL IN =        1468.8208

          OUT:                                     OUT:
          ----                                     ----
             STORAGE =       32669.7969               STORAGE =         464.7004
       CONSTANT HEAD =       82586.8203         CONSTANT HEAD =        1004.1201
               WELLS =           0.0000                 WELLS =           0.0000

           TOTAL OUT =      115256.6172             TOTAL OUT =        1468.8204

            IN - OUT =       2.3438E-02              IN - OUT =       3.6621E-04

 PERCENT DISCREPANCY =           0.00     PERCENT DISCREPANCY =           0.00






         TIME SUMMARY AT END OF TIME STEP    1 IN STRESS PERIOD    3
                    SECONDS     MINUTES      HOURS       DAYS        YEARS
                    -----------------------------------------------------------
   TIME STEP LENGTH 2.59200E+06  43200.      720.00      30.000     8.21355E-02
 STRESS PERIOD TIME 2.59200E+06  43200.      720.00      30.000     8.21355E-02
         TOTAL TIME 7.77600E+06 1.29600E+05  2160.0      90.000     0.24641    
1
1
                            STRESS PERIOD NO.    4, LENGTH =   30.00000    
                            -----------------------------------------------

                              NUMBER OF TIME STEPS =     1

                               MULTIPLIER FOR DELT =     1.000

                            INITIAL TIME STEP SIZE =   30.00000    

 REUSING NON-PARAMETER WELLS FROM LAST STRESS PERIOD

      1 WELL 
 
 SOLVING FOR HEAD 

 OUTPUT CONTROL FOR STRESS PERIOD    4   TIME STEP    1
    SAVE HEAD FOR ALL LAYERS

 HEAD WILL BE SAVED ON UNIT   51 AT END OF TIME STEP    1, STRESS PERIOD    4
1
  VOLUMETRIC BUDGET FOR ENTIRE MODEL AT END OF TIME STEP    1, STRESS PERIOD   4
  ------------------------------------------------------------------------------

     CUMULATIVE VOLUMES      L**3       RATES FOR THIS TIME STEP      L**3/T
     ------------------                 ------------------------

           IN:                                      IN:
           ---                                      ---
             STORAGE =       4.5280E-02               STORAGE =           0.0000
       CONSTANT HEAD =       98179.8281         CONSTANT HEAD =         738.7746
               WELLS =       58860.0000                 WELLS =         654.0000

            TOTAL IN =      157039.8750              TOTAL IN =        1392.7747

          OUT:                                     OUT:
          ----                                     ----
             STORAGE =       41249.3516               STORAGE =         285.9851
       CONSTANT HEAD =      115790.4688         CONSTANT HEAD =        1106.7882
               WELLS =           0.0000                 WELLS =           0.0000

           TOTAL OUT =      157039.8125             TOTAL OUT =        1392.7733

            IN - OUT =       6.2500E-02              IN - OUT =       1.3428E-03

 PERCENT DISCREPANCY =           0.00     PERCENT DISCREPANCY =           0.00






         TIME SUMMARY AT END OF TIME STEP    1 IN STRESS PERIOD    4
                    SECONDS     MINUTES      HOURS       DAYS        YEARS
                    -----------------------------------------------------------
   TIME STEP LENGTH 2.59200E+06  43200.      720.00      30.000     8.21355E-02
 STRESS PERIOD TIME 2.59200E+06  43200.      720.00      30.000     8.21355E-02
         TOTAL TIME 1.03680E+07 1.72800E+05  2880.0      120.00     0.32854    
1
1
                            STRESS PERIOD NO.    5, LENGTH =   30.00000    
                            -----------------------------------------------

                              NUMBER OF TIME STEPS =     1

                               MULTIPLIER FOR DELT =     1.000

                            INITIAL TIME STEP SIZE =   30.00000    

 REUSING NON-PARAMETER WELLS FROM LAST STRESS PERIOD

      1 WELL 
 
 SOLVING FOR HEAD 

 OUTPUT CONTROL FOR STRESS PERIOD    5   TIME STEP    1
    SAVE HEAD FOR ALL LAYERS

 HEAD WILL BE SAVED ON UNIT   51 AT END OF TIME STEP    1, STRESS PERIOD    5
1
  VOLUMETRIC BUDGET FOR ENTIRE MODEL AT END OF TIME STEP    1, STRESS PERIOD   5
  ------------------------------------------------------------------------------

     CUMULATIVE VOLUMES      L**3       RATES FOR THIS TIME STEP      L**3/T
     ------------------                 ------------------------

           IN:                                      IN:
           ---                                      ---
             STORAGE =       4.5280E-02               STORAGE =           0.0000
       CONSTANT HEAD =      119218.2812         CONSTANT HEAD =         701.2819
               WELLS =       78480.0000                 WELLS =         654.0000

            TOTAL IN =      197698.3281              TOTAL IN =        1355.2820

          OUT:                                     OUT:
          ----                                     ----
             STORAGE =       47089.5156               STORAGE =         194.6721
       CONSTANT HEAD =      150608.7656         CONSTANT HEAD =        1160.6100
               WELLS =           0.0000                 WELLS =           0.0000

           TOTAL OUT =      197698.2812             TOTAL OUT =        1355.2821

            IN - OUT =       4.6875E-02              IN - OUT =      -1.2207E-04

 PERCENT DISCREPANCY =           0.00     PERCENT DISCREPANCY =          -0.00






         TIME SUMMARY AT END OF TIME STEP    1 IN STRESS PERIOD    5
                    SECONDS     MINUTES      HOURS       DAYS        YEARS
                    -----------------------------------------------------------
   TIME STEP LENGTH 2.59200E+06  43200.      720.00      30.000     8.21355E-02
 STRESS PERIOD TIME 2.59200E+06  43200.      720.00      30.000     8.21355E-02
         TOTAL TIME 1.29600E+07 2.16000E+05  3600.0      150.00     0.41068    
1

 Run end date and time (yyyy/mm/dd hh:mm:ss): 2023/09/07  4:00:11
 Elapsed run time: 22.604 Seconds

